# TRIPOS MOL2 file generated by SEED

@<TRIPOS>MOLECULE
apolar_rec
90 0 0 0 0
****
USER_CHARGES
INVALID_CHARGES

@<TRIPOS>ATOM
1     1       0.2358    11.4782    26.2533 ***** 1    ****  0.000
2     2      -0.3342    10.6252    26.2533 ***** 1    ****  0.000
3     3      -0.6234    11.0901    25.3473 ***** 1    ****  0.000
4     4       5.0988    11.7037    25.4433 ***** 1    ****  0.000
5     5       4.5007    12.5987    25.4433 ***** 1    ****  0.000
6     6       5.1093    12.6400    24.4927 ***** 1    ****  0.000
7     7       4.3238    13.3630    24.4927 ***** 1    ****  0.000
8     8      -0.3022    12.1915    24.4927 ***** 1    ****  0.000
9     9       4.5543    13.4067    23.4390 ***** 1    ****  0.000
10    10      4.3238    13.3630    22.3853 ***** 1    ****  0.000
11    11      5.5505    10.5520    25.2025 ***** 1    ****  0.000
12    12      5.9256    11.5816    24.3136 ***** 1    ****  0.000
13    13      6.1444    10.5520    24.3136 ***** 1    ****  0.000
14    14      6.1444    11.6006    23.2650 ***** 1    ****  0.000
15    15      5.5505    12.4895    23.2650 ***** 1    ****  0.000
16    16      6.3530    10.5520    23.2650 ***** 1    ****  0.000
17    17      5.9256    11.5816    22.2164 ***** 1    ****  0.000
18    18      5.3069    12.4332    22.2164 ***** 1    ****  0.000
19    19      6.1444    10.5520    22.2164 ***** 1    ****  0.000
20    20      5.2429    11.5995    21.3275 ***** 1    ****  0.000
21    21      5.5505    10.5520    21.3275 ***** 1    ****  0.000
22    22      2.8363    12.4911    26.4554 ***** 1    ****  0.000
23    23      1.7877    12.4911    26.4554 ***** 1    ****  0.000
24    24      3.9419    12.6305    25.8615 ***** 1    ****  0.000
25    25      3.1169    13.3454    25.8615 ***** 1    ****  0.000
26    26      2.0363    13.5008    25.8615 ***** 1    ****  0.000
27    27      1.0432    13.0472    25.8615 ***** 1    ****  0.000
28    28      0.4530    12.1288    25.8615 ***** 1    ****  0.000
29    29      4.0059    13.4642    24.9726 ***** 1    ****  0.000
30    30      3.0943    13.9905    24.9726 ***** 1    ****  0.000
31    31      2.0474    14.1006    24.9726 ***** 1    ****  0.000
32    32      1.0463    13.7753    24.9726 ***** 1    ****  0.000
33    33      0.2640    13.0709    24.9726 ***** 1    ****  0.000
34    34     -0.1641    12.1093    24.9726 ***** 1    ****  0.000
35    35      3.3606    14.1144    23.9240 ***** 1    ****  0.000
36    36      2.3120    14.3230    23.9240 ***** 1    ****  0.000
37    37      1.2634    14.1144    23.9240 ***** 1    ****  0.000
38    38      0.3745    13.5205    23.9240 ***** 1    ****  0.000
39    39     -0.6843    11.7216    24.0855 ***** 1    ****  0.000
40    40      4.6077    10.6690    20.0885 ***** 1    ****  0.000
41    41      2.8994    14.1913    22.9740 ***** 1    ****  0.000
42    42     -0.0264    13.6094    22.9740 ***** 1    ****  0.000
43    43      4.2107    13.6734    21.9623 ***** 1    ****  0.000
44    44      3.3985    14.3549    21.9623 ***** 1    ****  0.000
45    45      4.7408    12.7552    20.8857 ***** 1    ****  0.000
46    46      4.2107    13.6734    20.8857 ***** 1    ****  0.000
47    47      3.3985    14.3549    20.8857 ***** 1    ****  0.000
48    48      4.9249    11.7110    20.8857 ***** 1    ****  0.000
49    49      4.3523    12.7384    19.8740 ***** 1    ****  0.000
50    50      3.7704    13.6094    19.8740 ***** 1    ****  0.000
51    51      2.8994    14.1913    19.8740 ***** 1    ****  0.000
52    52      1.8720    14.3957    19.8740 ***** 1    ****  0.000
53    53      0.8446    14.1913    19.8740 ***** 1    ****  0.000
54    54      4.5567    11.7110    19.8740 ***** 1    ****  0.000
55    55      3.5977    12.7073    19.0493 ***** 1    ****  0.000
56    56      2.8683    13.4367    19.0493 ***** 1    ****  0.000
57    57      1.8720    13.7036    19.0493 ***** 1    ****  0.000
58    58      0.8757    13.4367    19.0493 ***** 1    ****  0.000
59    59      3.5977    10.7147    19.0493 ***** 1    ****  0.000
60    60      3.8646    11.7110    19.0493 ***** 1    ****  0.000
61    61      2.4021    12.6292    18.5110 ***** 1    ****  0.000
62    62      1.3419    12.6292    18.5110 ***** 1    ****  0.000
63    63      2.9323    11.7110    18.5110 ***** 1    ****  0.000
64    64      7.8325     6.8865    10.1601 ***** 1    ****  0.000
65    65      8.4467     7.7319    10.1601 ***** 1    ****  0.000
66    66      7.7690     7.7142     9.2777 ***** 1    ****  0.000
67    67      6.6714     7.8526     8.6880 ***** 1    ****  0.000
68    68      7.3329     6.2208    14.5816 ***** 1    ****  0.000
69    69      3.9110    11.2886    16.0924 ***** 1    ****  0.000
70    70      2.8922    11.0156    16.0924 ***** 1    ****  0.000
71    71      2.8604    11.7873    15.2490 ***** 1    ****  0.000
72    72      5.0980    11.9541    16.3660 ***** 1    ****  0.000
73    73      4.3579    11.2140    16.3660 ***** 1    ****  0.000
74    74      6.1090    12.9860    15.6050 ***** 1    ****  0.000
75    75      5.0440    12.7742    15.6050 ***** 1    ****  0.000
76    76      4.1411    12.1709    15.6050 ***** 1    ****  0.000
77    77      4.3732    12.6542    15.3165 ***** 1    ****  0.000
78    78      3.5940    12.6779    14.4276 ***** 1    ****  0.000
79    79      6.8353    11.0441    17.2054 ***** 1    ****  0.000
80    80      5.7867    11.0441    17.2054 ***** 1    ****  0.000
81    81      6.8353     9.2279    17.2054 ***** 1    ****  0.000
82    82      7.3596    10.1360    17.2054 ***** 1    ****  0.000
83    83      7.9409    11.1835    16.6115 ***** 1    ****  0.000
84    84      7.1159    11.8984    16.6115 ***** 1    ****  0.000
85    85      6.0353    12.0538    16.6115 ***** 1    ****  0.000
86    86      5.0422    11.6002    16.6115 ***** 1    ****  0.000
87    87      4.4520    10.6818    16.6115 ***** 1    ****  0.000
88    88      6.2225     7.8760     8.4113 ***** 1    ****  0.000
89    89      4.7493     8.7859     7.9284 ***** 1    ****  0.000
90    90      2.5504    12.8816    13.8460 ***** 1    ****  0.000
