# TRIPOS MOL2 file generated by SEED

@<TRIPOS>MOLECULE
ZINC00151474
 27 28 0 0 0
****
USER_CHARGES
INVALID_CHARGES
Pose:   1 Cluster:   1 Fr_nu:    764 TotEn:    -8.68
@<TRIPOS>ATOM
      1 C1          3.6654    8.7186   33.3073 C.3    1 LIG      -0.17600
      2 C2          3.3647    7.4621   34.0530 C.ar   1 LIG       0.36400
      3 C3          3.1733    7.3394   35.4124 C.ar   1 LIG      -0.27100
      4 C4          2.9301    5.9903   35.5802 C.ar   1 LIG       0.08800
      5 N5          2.9781    5.3684   34.3851 N.ar   1 LIG      -0.46000
      6 O6          3.2405    6.2808   33.4948 O.2    1 LIG      -0.17400
      7 C7          2.6574    5.3118   36.8574 C.2    1 LIG       0.66600
      8 O8          2.6297    5.9844   37.9234 O.2    1 LIG      -0.48400
      9 N9          2.4182    3.8981   36.8936 N.am   1 LIG      -0.48900
     10 N10         2.2114    3.2231   38.1116 N.pl3  1 LIG      -0.66300
     11 C11         1.8320    1.8370   38.1651 C.ar   1 LIG       0.36700
     12 C12         1.1249    1.2335   37.1077 C.ar   1 LIG      -0.17300
     13 C13         0.7522   -0.1120   37.1844 C.ar   1 LIG      -0.10100
     14 C14         1.0720   -0.8649   38.3162 C.ar   1 LIG      -0.17100
     15 C15         1.7595   -0.2719   39.3775 C.ar   1 LIG      -0.09000
     16 C16         2.1346    1.0739   39.3078 C.ar   1 LIG       0.11100
     17 F17         2.8057    1.6292   40.3483 F      1 LIG      -0.22300
     18 H18         2.8662    8.9052   32.5604 H      1 LIG       0.09000
     19 H19         4.6380    8.6136   32.7835 H      1 LIG       0.09000
     20 H20         3.7198    9.5821   34.0035 H      1 LIG       0.09000
     21 H21         3.2061    8.1156   36.1659 H      1 LIG       0.14400
     22 H22         2.4522    3.3600   35.9995 H      1 LIG       0.35300
     23 H23         2.4052    3.7217   39.0094 H      1 LIG       0.58600
     24 H24         0.8362    1.8015   36.2340 H      1 LIG       0.11500
     25 H25         0.2079   -0.5693   36.3682 H      1 LIG       0.11500
     26 H26         0.7815   -1.9059   38.3736 H      1 LIG       0.11500
     27 H27         2.0016   -0.8567   40.2557 H      1 LIG       0.18100
@<TRIPOS>BOND
      1       1       2 1
      2       2       3 ar
      3       3       4 ar
      4       4       5 ar
      5       5       6 ar
      6       2       6 ar
      7       4       7 1
      8       7       8 2
      9       7       9 am
     10       9      10 1
     11      10      11 1
     12      11      12 ar
     13      12      13 ar
     14      13      14 ar
     15      14      15 ar
     16      15      16 ar
     17      11      16 ar
     18      16      17 1
     19       1      18 1
     20       1      19 1
     21       1      20 1
     22       3      21 1
     23       9      22 1
     24      10      23 1
     25      12      24 1
     26      13      25 1
     27      14      26 1
     28      15      27 1
@<TRIPOS>ALT_TYPE
CGenFF_4.0_ALT_TYPE_SET
CGenFF_4.0 1 CG331 2 CG2R51 3 CG2R51 4 CG2R52 5 NG2R50 6 OG2R50 7 CG2O1 8 OG2D1 9 NG2S1 10 NG3N1 11 CG2R61 12 CG2R61 13 CG2R61 14 CG2R61 15 CG2R61 16 CG2R66 17 FGR1 18 HGA3 19 HGA3 20 HGA3 21 HGR51 22 HGP1 23 HGP1 24 HGR61 25 HGR61 26 HGR61 27 HGR62
@<TRIPOS>MOLECULE
ZINC00151474$2
 27 28 0 0 0
****
USER_CHARGES
INVALID_CHARGES
Pose:   1 Cluster:   1 Fr_nu:   3490 TotEn:   -12.48
@<TRIPOS>ATOM
      1 C1          8.5328    7.7845   21.4523 C.3    1 LIG      -0.17600
      2 C2          7.5973    6.9176   22.2246 C.ar   1 LIG       0.36400
      3 C3          7.3252    7.0117   23.5717 C.ar   1 LIG      -0.27100
      4 C4          6.4114    5.9983   23.7837 C.ar   1 LIG       0.08800
      5 N5          6.1702    5.3537   22.6245 N.ar   1 LIG      -0.46000
      6 O6          6.8972    5.9322   21.7130 O.2    1 LIG      -0.17400
      7 C7          5.7884    5.6489   25.0696 C.2    1 LIG       0.66600
      8 O8          6.0857    6.3077   26.1028 O.2    1 LIG      -0.48400
      9 N9          4.8332    4.5800   25.1465 N.am   1 LIG      -0.48900
     10 N10         4.2912    4.1460   26.3700 N.pl3  1 LIG      -0.66300
     11 C11         5.0957    3.8791   27.5316 C.ar   1 LIG       0.36700
     12 C12         6.4572    3.5455   27.4093 C.ar   1 LIG      -0.17300
     13 C13         7.2210    3.2679   28.5470 C.ar   1 LIG      -0.10100
     14 C14         6.6322    3.3092   29.8130 C.ar   1 LIG      -0.17100
     15 C15         5.2768    3.6219   29.9432 C.ar   1 LIG      -0.09000
     16 C16         4.5076    3.9003   28.8083 C.ar   1 LIG       0.11100
     17 F17         3.1935    4.2050   28.9538 F      1 LIG      -0.22300
     18 H18         8.2011    8.8418   21.5167 H      1 LIG       0.09000
     19 H19         8.5475    7.4729   20.3870 H      1 LIG       0.09000
     20 H20         9.5569    7.6941   21.8709 H      1 LIG       0.09000
     21 H21         7.7325    7.7121   24.2892 H      1 LIG       0.14400
     22 H22         4.3885    4.2421   24.2639 H      1 LIG       0.35300
     23 H23         3.2745    3.9071   26.4007 H      1 LIG       0.58600
     24 H24         6.9258    3.4849   26.4358 H      1 LIG       0.11500
     25 H25         8.2684    3.0146   28.4462 H      1 LIG       0.11500
     26 H26         7.2247    3.0929   30.6926 H      1 LIG       0.11500
     27 H27         4.8220    3.6478   30.9251 H      1 LIG       0.18100
@<TRIPOS>BOND
      1       1       2 1
      2       2       3 ar
      3       3       4 ar
      4       4       5 ar
      5       5       6 ar
      6       2       6 ar
      7       4       7 1
      8       7       8 2
      9       7       9 am
     10       9      10 1
     11      10      11 1
     12      11      12 ar
     13      12      13 ar
     14      13      14 ar
     15      14      15 ar
     16      15      16 ar
     17      11      16 ar
     18      16      17 1
     19       1      18 1
     20       1      19 1
     21       1      20 1
     22       3      21 1
     23       9      22 1
     24      10      23 1
     25      12      24 1
     26      13      25 1
     27      14      26 1
     28      15      27 1
@<TRIPOS>ALT_TYPE
CGenFF_4.0_ALT_TYPE_SET
CGenFF_4.0 1 CG331 2 CG2R51 3 CG2R51 4 CG2R52 5 NG2R50 6 OG2R50 7 CG2O1 8 OG2D1 9 NG2S1 10 NG3N1 11 CG2R61 12 CG2R61 13 CG2R61 14 CG2R61 15 CG2R61 16 CG2R66 17 FGR1 18 HGA3 19 HGA3 20 HGA3 21 HGR51 22 HGP1 23 HGP1 24 HGR61 25 HGR61 26 HGR61 27 HGR62
@<TRIPOS>MOLECULE
ZINC00151474$3
 27 28 0 0 0
****
USER_CHARGES
INVALID_CHARGES
Pose:   1 Cluster:   1 Fr_nu:     41 TotEn:    -9.43
@<TRIPOS>ATOM
      1 C1          8.2591    2.8754   26.8659 C.3    1 LIG      -0.17600
      2 C2          6.8601    3.0198   27.3613 C.ar   1 LIG       0.36400
      3 C3          6.4662    3.6776   28.5058 C.ar   1 LIG      -0.27100
      4 C4          5.0916    3.5222   28.5081 C.ar   1 LIG       0.08800
      5 N5          4.7175    2.8137   27.4232 N.ar   1 LIG      -0.46000
      6 O6          5.8012    2.5306   26.7610 O.2    1 LIG      -0.17400
      7 C7          4.1393    4.0313   29.5116 C.2    1 LIG       0.66600
      8 O8          2.9093    3.8073   29.3514 O.2    1 LIG      -0.48400
      9 N9          4.5869    4.7761   30.6541 N.am   1 LIG      -0.48900
     10 N10         3.6796    5.2196   31.6353 N.pl3  1 LIG      -0.66300
     11 C11         4.0771    6.0891   32.7096 C.ar   1 LIG       0.36700
     12 C12         5.1645    6.9721   32.5682 C.ar   1 LIG      -0.17300
     13 C13         5.5270    7.8202   33.6192 C.ar   1 LIG      -0.10100
     14 C14         4.8060    7.8027   34.8150 C.ar   1 LIG      -0.17100
     15 C15         3.7159    6.9418   34.9603 C.ar   1 LIG      -0.09000
     16 C16         3.3471    6.0914   33.9124 C.ar   1 LIG       0.11100
     17 F17         2.2874    5.2598   34.0759 F      1 LIG      -0.22300
     18 H18         8.2688    2.2955   25.9194 H      1 LIG       0.09000
     19 H19         8.6949    3.8793   26.6809 H      1 LIG       0.09000
     20 H20         8.8704    2.3429   27.6241 H      1 LIG       0.09000
     21 H21         7.0968    4.1893   29.2199 H      1 LIG       0.14400
     22 H22         5.6076    4.9447   30.7839 H      1 LIG       0.35300
     23 H23         2.7006    4.8540   31.6269 H      1 LIG       0.58600
     24 H24         5.7197    7.0293   31.6420 H      1 LIG       0.11500
     25 H25         6.3636    8.4972   33.5033 H      1 LIG       0.11500
     26 H26         5.0879    8.4608   35.6267 H      1 LIG       0.11500
     27 H27         3.1557    6.9341   35.8864 H      1 LIG       0.18100
@<TRIPOS>BOND
      1       1       2 1
      2       2       3 ar
      3       3       4 ar
      4       4       5 ar
      5       5       6 ar
      6       2       6 ar
      7       4       7 1
      8       7       8 2
      9       7       9 am
     10       9      10 1
     11      10      11 1
     12      11      12 ar
     13      12      13 ar
     14      13      14 ar
     15      14      15 ar
     16      15      16 ar
     17      11      16 ar
     18      16      17 1
     19       1      18 1
     20       1      19 1
     21       1      20 1
     22       3      21 1
     23       9      22 1
     24      10      23 1
     25      12      24 1
     26      13      25 1
     27      14      26 1
     28      15      27 1
@<TRIPOS>ALT_TYPE
CGenFF_4.0_ALT_TYPE_SET
CGenFF_4.0 1 CG331 2 CG2R51 3 CG2R51 4 CG2R52 5 NG2R50 6 OG2R50 7 CG2O1 8 OG2D1 9 NG2S1 10 NG3N1 11 CG2R61 12 CG2R61 13 CG2R61 14 CG2R61 15 CG2R61 16 CG2R66 17 FGR1 18 HGA3 19 HGA3 20 HGA3 21 HGR51 22 HGP1 23 HGP1 24 HGR61 25 HGR61 26 HGR61 27 HGR62
@<TRIPOS>MOLECULE
ZINC00151474$4
 27 28 0 0 0
****
USER_CHARGES
INVALID_CHARGES
Pose:   1 Cluster:   1 Fr_nu:   2833 TotEn:    -8.16
@<TRIPOS>ATOM
      1 C1          0.9101   -0.2005   37.3564 C.3    1 LIG      -0.17600
      2 C2          1.5160    1.1585   37.4620 C.ar   1 LIG       0.36400
      3 C3          0.9214    2.3521   37.1134 C.ar   1 LIG      -0.27100
      4 C4          1.8941    3.2906   37.4026 C.ar   1 LIG       0.08800
      5 N5          2.9894    2.6714   37.8871 N.ar   1 LIG      -0.46000
      6 O6          2.7260    1.3973   37.9098 O.2    1 LIG      -0.17400
      7 C7          1.8007    4.7468   37.2088 C.2    1 LIG       0.66600
      8 O8          2.8106    5.4625   37.4475 O.2    1 LIG      -0.48400
      9 N9          0.5753    5.3573   36.7747 N.am   1 LIG      -0.48900
     10 N10         0.5016    6.7182   36.4261 N.pl3  1 LIG      -0.66300
     11 C11         1.4593    7.3587   35.5655 C.ar   1 LIG       0.36700
     12 C12         2.2085    6.6153   34.6348 C.ar   1 LIG      -0.17300
     13 C13         3.1207    7.2556   33.7906 C.ar   1 LIG      -0.10100
     14 C14         3.2851    8.6409   33.8588 C.ar   1 LIG      -0.17100
     15 C15         2.5329    9.3897   34.7673 C.ar   1 LIG      -0.09000
     16 C16         1.6184    8.7546   35.6143 C.ar   1 LIG       0.11100
     17 F17         0.8986    9.4973   36.4925 F      1 LIG      -0.22300
     18 H18         1.5287   -0.8294   36.6832 H      1 LIG       0.09000
     19 H19        -0.1208   -0.1378   36.9482 H      1 LIG       0.09000
     20 H20         0.8737   -0.6678   38.3622 H      1 LIG       0.09000
     21 H21        -0.0675    2.5047   36.7023 H      1 LIG       0.14400
     22 H22        -0.3202    4.8389   36.9116 H      1 LIG       0.35300
     23 H23        -0.3420    7.2579   36.7243 H      1 LIG       0.58600
     24 H24         2.0780    5.5445   34.5496 H      1 LIG       0.11500
     25 H25         3.6957    6.6778   33.0786 H      1 LIG       0.11500
     26 H26         3.9909    9.1351   33.2037 H      1 LIG       0.11500
     27 H27         2.6584   10.4638   34.8141 H      1 LIG       0.18100
@<TRIPOS>BOND
      1       1       2 1
      2       2       3 ar
      3       3       4 ar
      4       4       5 ar
      5       5       6 ar
      6       2       6 ar
      7       4       7 1
      8       7       8 2
      9       7       9 am
     10       9      10 1
     11      10      11 1
     12      11      12 ar
     13      12      13 ar
     14      13      14 ar
     15      14      15 ar
     16      15      16 ar
     17      11      16 ar
     18      16      17 1
     19       1      18 1
     20       1      19 1
     21       1      20 1
     22       3      21 1
     23       9      22 1
     24      10      23 1
     25      12      24 1
     26      13      25 1
     27      14      26 1
     28      15      27 1
@<TRIPOS>ALT_TYPE
CGenFF_4.0_ALT_TYPE_SET
CGenFF_4.0 1 CG331 2 CG2R51 3 CG2R51 4 CG2R52 5 NG2R50 6 OG2R50 7 CG2O1 8 OG2D1 9 NG2S1 10 NG3N1 11 CG2R61 12 CG2R61 13 CG2R61 14 CG2R61 15 CG2R61 16 CG2R66 17 FGR1 18 HGA3 19 HGA3 20 HGA3 21 HGR51 22 HGP1 23 HGP1 24 HGR61 25 HGR61 26 HGR61 27 HGR62
@<TRIPOS>MOLECULE
ZINC00151474$5
 27 28 0 0 0
****
USER_CHARGES
INVALID_CHARGES
Pose:   1 Cluster:   1 Fr_nu:   3504 TotEn:    -9.84
@<TRIPOS>ATOM
      1 C1          5.4033   10.5682   34.4924 C.3    1 LIG      -0.17600
      2 C2          5.3414    9.2123   33.8752 C.ar   1 LIG       0.36400
      3 C3          6.4012    8.5110   33.3437 C.ar   1 LIG      -0.27100
      4 C4          5.8207    7.3350   32.9110 C.ar   1 LIG       0.08800
      5 N5          4.4993    7.3559   33.1775 N.ar   1 LIG      -0.46000
      6 O6          4.2487    8.4952   33.7549 O.2    1 LIG      -0.17400
      7 C7          6.5164    6.2157   32.2559 C.2    1 LIG       0.66600
      8 O8          7.7570    6.2939   32.0457 O.2    1 LIG      -0.48400
      9 N9          5.7921    5.0459   31.8517 N.am   1 LIG      -0.48900
     10 N10         6.4493    3.9421   31.2776 N.pl3  1 LIG      -0.66300
     11 C11         5.7276    2.8156   30.7560 C.ar   1 LIG       0.36700
     12 C12         6.2821    1.5311   30.8746 C.ar   1 LIG      -0.17300
     13 C13         5.6035    0.4174   30.3712 C.ar   1 LIG      -0.10100
     14 C14         4.3721    0.5783   29.7323 C.ar   1 LIG      -0.17100
     15 C15         3.8220    1.8542   29.5874 C.ar   1 LIG      -0.09000
     16 C16         4.4954    2.9734   30.0898 C.ar   1 LIG       0.11100
     17 F17         3.9681    4.2050   29.8770 F      1 LIG      -0.22300
     18 H18         6.0896   10.5504   35.3644 H      1 LIG       0.09000
     19 H19         5.7751   11.3012   33.7464 H      1 LIG       0.09000
     20 H20         4.3926   10.8771   34.8323 H      1 LIG       0.09000
     21 H21         7.4389    8.8124   33.2818 H      1 LIG       0.14400
     22 H22         4.7660    4.9963   32.0401 H      1 LIG       0.35300
     23 H23         7.4905    3.8755   31.3437 H      1 LIG       0.58600
     24 H24         7.2355    1.3929   31.3691 H      1 LIG       0.11500
     25 H25         6.0333   -0.5705   30.4756 H      1 LIG       0.11500
     26 H26         3.8489   -0.2844   29.3407 H      1 LIG       0.11500
     27 H27         2.8771    1.9770   29.0737 H      1 LIG       0.18100
@<TRIPOS>BOND
      1       1       2 1
      2       2       3 ar
      3       3       4 ar
      4       4       5 ar
      5       5       6 ar
      6       2       6 ar
      7       4       7 1
      8       7       8 2
      9       7       9 am
     10       9      10 1
     11      10      11 1
     12      11      12 ar
     13      12      13 ar
     14      13      14 ar
     15      14      15 ar
     16      15      16 ar
     17      11      16 ar
     18      16      17 1
     19       1      18 1
     20       1      19 1
     21       1      20 1
     22       3      21 1
     23       9      22 1
     24      10      23 1
     25      12      24 1
     26      13      25 1
     27      14      26 1
     28      15      27 1
@<TRIPOS>ALT_TYPE
CGenFF_4.0_ALT_TYPE_SET
CGenFF_4.0 1 CG331 2 CG2R51 3 CG2R51 4 CG2R52 5 NG2R50 6 OG2R50 7 CG2O1 8 OG2D1 9 NG2S1 10 NG3N1 11 CG2R61 12 CG2R61 13 CG2R61 14 CG2R61 15 CG2R61 16 CG2R66 17 FGR1 18 HGA3 19 HGA3 20 HGA3 21 HGR51 22 HGP1 23 HGP1 24 HGR61 25 HGR61 26 HGR61 27 HGR62
@<TRIPOS>MOLECULE
ZINC00151474$6
 27 28 0 0 0
****
USER_CHARGES
INVALID_CHARGES
Pose:   1 Cluster:   1 Fr_nu:   2581 TotEn:   -10.08
@<TRIPOS>ATOM
      1 C1         -5.3715    7.6814   37.5779 C.3    1 LIG      -0.17600
      2 C2         -4.3539    6.6015   37.7249 C.ar   1 LIG       0.36400
      3 C3         -3.8530    5.8122   36.7132 C.ar   1 LIG      -0.27100
      4 C4         -2.9581    4.9871   37.3656 C.ar   1 LIG       0.08800
      5 N5         -2.9430    5.2833   38.6807 N.ar   1 LIG      -0.46000
      6 O6         -3.7910    6.2545   38.8586 O.2    1 LIG      -0.17400
      7 C7         -2.1350    3.9379   36.7429 C.2    1 LIG       0.66600
      8 O8         -2.2177    3.7400   35.5005 O.2    1 LIG      -0.48400
      9 N9         -1.2395    3.1488   37.5376 N.am   1 LIG      -0.48900
     10 N10        -0.4885    2.1028   36.9702 N.pl3  1 LIG      -0.66300
     11 C11         0.5015    1.3840   37.7221 C.ar   1 LIG       0.36700
     12 C12         0.6902    0.0149   37.4748 C.ar   1 LIG      -0.17300
     13 C13         1.6504   -0.7080   38.1887 C.ar   1 LIG      -0.10100
     14 C14         2.4402   -0.0669   39.1455 C.ar   1 LIG      -0.17100
     15 C15         2.2778    1.3000   39.3830 C.ar   1 LIG      -0.09000
     16 C16         1.3178    2.0296   38.6728 C.ar   1 LIG       0.11100
     17 F17         1.2277    3.3675   38.8788 F      1 LIG      -0.22300
     18 H18        -5.5796    8.1440   38.5653 H      1 LIG       0.09000
     19 H19        -6.3123    7.2548   37.1716 H      1 LIG       0.09000
     20 H20        -4.9915    8.4605   36.8849 H      1 LIG       0.09000
     21 H21        -4.1030    5.8358   35.6604 H      1 LIG       0.14400
     22 H22        -1.1894    3.3226   38.5661 H      1 LIG       0.35300
     23 H23        -0.7399    1.7501   36.0188 H      1 LIG       0.58600
     24 H24         0.0832   -0.4940   36.7365 H      1 LIG       0.11500
     25 H25         1.7826   -1.7654   37.9989 H      1 LIG       0.11500
     26 H26         3.1852   -0.6272   39.6957 H      1 LIG       0.11500
     27 H27         2.9058    1.7975   40.1109 H      1 LIG       0.18100
@<TRIPOS>BOND
      1       1       2 1
      2       2       3 ar
      3       3       4 ar
      4       4       5 ar
      5       5       6 ar
      6       2       6 ar
      7       4       7 1
      8       7       8 2
      9       7       9 am
     10       9      10 1
     11      10      11 1
     12      11      12 ar
     13      12      13 ar
     14      13      14 ar
     15      14      15 ar
     16      15      16 ar
     17      11      16 ar
     18      16      17 1
     19       1      18 1
     20       1      19 1
     21       1      20 1
     22       3      21 1
     23       9      22 1
     24      10      23 1
     25      12      24 1
     26      13      25 1
     27      14      26 1
     28      15      27 1
@<TRIPOS>ALT_TYPE
CGenFF_4.0_ALT_TYPE_SET
CGenFF_4.0 1 CG331 2 CG2R51 3 CG2R51 4 CG2R52 5 NG2R50 6 OG2R50 7 CG2O1 8 OG2D1 9 NG2S1 10 NG3N1 11 CG2R61 12 CG2R61 13 CG2R61 14 CG2R61 15 CG2R61 16 CG2R66 17 FGR1 18 HGA3 19 HGA3 20 HGA3 21 HGR51 22 HGP1 23 HGP1 24 HGR61 25 HGR61 26 HGR61 27 HGR62
@<TRIPOS>MOLECULE
ZINC00151474$7
 27 28 0 0 0
****
USER_CHARGES
INVALID_CHARGES
Pose:   1 Cluster:   1 Fr_nu:     82 TotEn:    -9.97
@<TRIPOS>ATOM
      1 C1          6.9376    5.3634   25.2418 C.3    1 LIG      -0.17600
      2 C2          5.8211    4.8906   26.1107 C.ar   1 LIG       0.36400
      3 C3          5.6625    5.1463   27.4558 C.ar   1 LIG      -0.27100
      4 C4          4.4866    4.4896   27.7709 C.ar   1 LIG       0.08800
      5 N5          3.9973    3.8893   26.6669 N.ar   1 LIG      -0.46000
      6 O6          4.8211    4.1510   25.6942 O.2    1 LIG      -0.17400
      7 C7          3.8297    4.4223   29.0887 C.2    1 LIG       0.66600
      8 O8          2.7622    3.7618   29.2038 O.2    1 LIG      -0.48400
      9 N9          4.3855    5.0856   30.2336 N.am   1 LIG      -0.48900
     10 N10         3.7313    5.0588   31.4792 N.pl3  1 LIG      -0.66300
     11 C11         4.3316    5.6045   32.6640 C.ar   1 LIG       0.36700
     12 C12         3.5151    6.2223   33.6247 C.ar   1 LIG      -0.17300
     13 C13         4.0724    6.7575   34.7896 C.ar   1 LIG      -0.10100
     14 C14         5.4482    6.6679   35.0120 C.ar   1 LIG      -0.17100
     15 C15         6.2674    6.0343   34.0744 C.ar   1 LIG      -0.09000
     16 C16         5.7163    5.4972   32.9057 C.ar   1 LIG       0.11100
     17 F17         6.5269    4.8316   32.0454 F      1 LIG      -0.22300
     18 H18         7.4678    4.4882   24.8126 H      1 LIG       0.09000
     19 H19         7.6581    5.9720   25.8282 H      1 LIG       0.09000
     20 H20         6.5273    5.9827   24.4174 H      1 LIG       0.09000
     21 H21         6.3137    5.7240   28.0973 H      1 LIG       0.14400
     22 H22         5.2609    5.6427   30.1281 H      1 LIG       0.35300
     23 H23         2.7335    4.7510   31.5271 H      1 LIG       0.58600
     24 H24         2.4470    6.2993   33.4633 H      1 LIG       0.11500
     25 H25         3.4371    7.2409   35.5204 H      1 LIG       0.11500
     26 H26         5.8783    7.0805   35.9155 H      1 LIG       0.11500
     27 H27         7.3305    5.9491   34.2600 H      1 LIG       0.18100
@<TRIPOS>BOND
      1       1       2 1
      2       2       3 ar
      3       3       4 ar
      4       4       5 ar
      5       5       6 ar
      6       2       6 ar
      7       4       7 1
      8       7       8 2
      9       7       9 am
     10       9      10 1
     11      10      11 1
     12      11      12 ar
     13      12      13 ar
     14      13      14 ar
     15      14      15 ar
     16      15      16 ar
     17      11      16 ar
     18      16      17 1
     19       1      18 1
     20       1      19 1
     21       1      20 1
     22       3      21 1
     23       9      22 1
     24      10      23 1
     25      12      24 1
     26      13      25 1
     27      14      26 1
     28      15      27 1
@<TRIPOS>ALT_TYPE
CGenFF_4.0_ALT_TYPE_SET
CGenFF_4.0 1 CG331 2 CG2R51 3 CG2R51 4 CG2R52 5 NG2R50 6 OG2R50 7 CG2O1 8 OG2D1 9 NG2S1 10 NG3N1 11 CG2R61 12 CG2R61 13 CG2R61 14 CG2R61 15 CG2R61 16 CG2R66 17 FGR1 18 HGA3 19 HGA3 20 HGA3 21 HGR51 22 HGP1 23 HGP1 24 HGR61 25 HGR61 26 HGR61 27 HGR62
@<TRIPOS>MOLECULE
ZINC00151474$8
 27 28 0 0 0
****
USER_CHARGES
INVALID_CHARGES
Pose:   1 Cluster:   1 Fr_nu:   2048 TotEn:   -10.76
@<TRIPOS>ATOM
      1 C1          6.8922    8.3319   22.0773 C.3    1 LIG      -0.17600
      2 C2          6.9516    7.1355   22.9653 C.ar   1 LIG       0.36400
      3 C3          6.9995    7.1460   24.3420 C.ar   1 LIG      -0.27100
      4 C4          7.0418    5.8039   24.6705 C.ar   1 LIG       0.08800
      5 N5          7.0159    5.0622   23.5448 N.ar   1 LIG      -0.46000
      6 O6          6.9636    5.8929   22.5444 O.2    1 LIG      -0.17400
      7 C7          7.0879    5.2279   26.0243 C.2    1 LIG       0.66600
      8 O8          7.0414    3.9754   26.1590 O.2    1 LIG      -0.48400
      9 N9          7.2054    6.0699   27.1818 N.am   1 LIG      -0.48900
     10 N10         7.0890    5.5631   28.4890 N.pl3  1 LIG      -0.66300
     11 C11         6.0352    4.6711   28.8915 C.ar   1 LIG       0.36700
     12 C12         4.8087    4.6404   28.2023 C.ar   1 LIG      -0.17300
     13 C13         3.7864    3.7826   28.6188 C.ar   1 LIG      -0.10100
     14 C14         3.9733    2.9581   29.7308 C.ar   1 LIG      -0.17100
     15 C15         5.1810    2.9943   30.4321 C.ar   1 LIG      -0.09000
     16 C16         6.2075    3.8510   30.0202 C.ar   1 LIG       0.11100
     17 F17         7.3747    3.8708   30.7116 F      1 LIG      -0.22300
     18 H18         7.7899    8.9635   22.2416 H      1 LIG       0.09000
     19 H19         5.9803    8.9219   22.3064 H      1 LIG       0.09000
     20 H20         6.8615    8.0143   21.0140 H      1 LIG       0.09000
     21 H21         6.9936    8.0060   24.9980 H      1 LIG       0.14400
     22 H22         7.5839    7.0356   27.0642 H      1 LIG       0.35300
     23 H23         7.7375    5.9327   29.2200 H      1 LIG       0.58600
     24 H24         4.6355    5.2889   27.3536 H      1 LIG       0.11500
     25 H25         2.8462    3.7618   28.0829 H      1 LIG       0.11500
     26 H26         3.1802    2.2954   30.0524 H      1 LIG       0.11500
     27 H27         5.3210    2.3582   31.2966 H      1 LIG       0.18100
@<TRIPOS>BOND
      1       1       2 1
      2       2       3 ar
      3       3       4 ar
      4       4       5 ar
      5       5       6 ar
      6       2       6 ar
      7       4       7 1
      8       7       8 2
      9       7       9 am
     10       9      10 1
     11      10      11 1
     12      11      12 ar
     13      12      13 ar
     14      13      14 ar
     15      14      15 ar
     16      15      16 ar
     17      11      16 ar
     18      16      17 1
     19       1      18 1
     20       1      19 1
     21       1      20 1
     22       3      21 1
     23       9      22 1
     24      10      23 1
     25      12      24 1
     26      13      25 1
     27      14      26 1
     28      15      27 1
@<TRIPOS>ALT_TYPE
CGenFF_4.0_ALT_TYPE_SET
CGenFF_4.0 1 CG331 2 CG2R51 3 CG2R51 4 CG2R52 5 NG2R50 6 OG2R50 7 CG2O1 8 OG2D1 9 NG2S1 10 NG3N1 11 CG2R61 12 CG2R61 13 CG2R61 14 CG2R61 15 CG2R61 16 CG2R66 17 FGR1 18 HGA3 19 HGA3 20 HGA3 21 HGR51 22 HGP1 23 HGP1 24 HGR61 25 HGR61 26 HGR61 27 HGR62
@<TRIPOS>MOLECULE
ZINC00151474$9
 27 28 0 0 0
****
USER_CHARGES
INVALID_CHARGES
Pose:   1 Cluster:   1 Fr_nu:     77 TotEn:   -10.36
@<TRIPOS>ATOM
      1 C1          5.5515    3.9836   26.9295 C.3    1 LIG      -0.17600
      2 C2          4.9239    4.2466   28.2568 C.ar   1 LIG       0.36400
      3 C3          5.5805    4.4161   29.4568 C.ar   1 LIG      -0.27100
      4 C4          4.5534    4.6274   30.3553 C.ar   1 LIG       0.08800
      5 N5          3.3700    4.5839   29.7112 N.ar   1 LIG      -0.46000
      6 O6          3.6313    4.3535   28.4572 O.2    1 LIG      -0.17400
      7 C7          4.7017    4.8734   31.7980 C.2    1 LIG       0.66600
      8 O8          5.8547    4.9039   32.3073 O.2    1 LIG      -0.48400
      9 N9          3.5430    5.0573   32.6254 N.am   1 LIG      -0.48900
     10 N10         3.6411    5.3959   33.9873 N.pl3  1 LIG      -0.66300
     11 C11         4.4947    6.4463   34.4731 C.ar   1 LIG       0.36700
     12 C12         4.8875    7.5066   33.6357 C.ar   1 LIG      -0.17300
     13 C13         5.7004    8.5316   34.1289 C.ar   1 LIG      -0.10100
     14 C14         6.1181    8.5144   35.4617 C.ar   1 LIG      -0.17100
     15 C15         5.7186    7.4752   36.3055 C.ar   1 LIG      -0.09000
     16 C16         4.9050    6.4471   35.8176 C.ar   1 LIG       0.11100
     17 F17         4.5291    5.4442   36.6507 F      1 LIG      -0.22300
     18 H18         5.1812    3.0164   26.5308 H      1 LIG       0.09000
     19 H19         5.2807    4.7972   26.2251 H      1 LIG       0.09000
     20 H20         6.6572    3.9377   27.0227 H      1 LIG       0.09000
     21 H21         6.6457    4.3908   29.6467 H      1 LIG       0.14400
     22 H22         2.6138    4.7503   32.2604 H      1 LIG       0.35300
     23 H23         2.9860    4.9342   34.6576 H      1 LIG       0.58600
     24 H24         4.5546    7.5505   32.6069 H      1 LIG       0.11500
     25 H25         6.0013    9.3431   33.4788 H      1 LIG       0.11500
     26 H26         6.7466    9.3093   35.8421 H      1 LIG       0.11500
     27 H27         6.0395    7.4673   37.3393 H      1 LIG       0.18100
@<TRIPOS>BOND
      1       1       2 1
      2       2       3 ar
      3       3       4 ar
      4       4       5 ar
      5       5       6 ar
      6       2       6 ar
      7       4       7 1
      8       7       8 2
      9       7       9 am
     10       9      10 1
     11      10      11 1
     12      11      12 ar
     13      12      13 ar
     14      13      14 ar
     15      14      15 ar
     16      15      16 ar
     17      11      16 ar
     18      16      17 1
     19       1      18 1
     20       1      19 1
     21       1      20 1
     22       3      21 1
     23       9      22 1
     24      10      23 1
     25      12      24 1
     26      13      25 1
     27      14      26 1
     28      15      27 1
@<TRIPOS>ALT_TYPE
CGenFF_4.0_ALT_TYPE_SET
CGenFF_4.0 1 CG331 2 CG2R51 3 CG2R51 4 CG2R52 5 NG2R50 6 OG2R50 7 CG2O1 8 OG2D1 9 NG2S1 10 NG3N1 11 CG2R61 12 CG2R61 13 CG2R61 14 CG2R61 15 CG2R61 16 CG2R66 17 FGR1 18 HGA3 19 HGA3 20 HGA3 21 HGR51 22 HGP1 23 HGP1 24 HGR61 25 HGR61 26 HGR61 27 HGR62
@<TRIPOS>MOLECULE
ZINC00151474$10
 27 28 0 0 0
****
USER_CHARGES
INVALID_CHARGES
Pose:   1 Cluster:   1 Fr_nu:     66 TotEn:   -10.25
@<TRIPOS>ATOM
      1 C1          6.9646    5.2453   25.2494 C.3    1 LIG      -0.17600
      2 C2          5.8267    4.8182   26.1142 C.ar   1 LIG       0.36400
      3 C3          5.6757    5.0766   27.4596 C.ar   1 LIG      -0.27100
      4 C4          4.4720    4.4697   27.7700 C.ar   1 LIG       0.08800
      5 N5          3.9604    3.8943   26.6629 N.ar   1 LIG      -0.46000
      6 O6          4.7971    4.1231   25.6931 O.2    1 LIG      -0.17400
      7 C7          3.8089    4.4270   29.0858 C.2    1 LIG       0.66600
      8 O8          2.7123    3.8148   29.1948 O.2    1 LIG      -0.48400
      9 N9          4.3903    5.0608   30.2350 N.am   1 LIG      -0.48900
     10 N10         3.7313    5.0588   31.4792 N.pl3  1 LIG      -0.66300
     11 C11         4.3532    5.5557   32.6768 C.ar   1 LIG       0.36700
     12 C12         5.7529    5.5467   32.8287 C.ar   1 LIG      -0.17300
     13 C13         6.3386    6.0209   34.0065 C.ar   1 LIG      -0.10100
     14 C14         5.5370    6.4992   35.0451 C.ar   1 LIG      -0.17100
     15 C15         4.1468    6.4981   34.9111 C.ar   1 LIG      -0.09000
     16 C16         3.5542    6.0242   33.7359 C.ar   1 LIG       0.11100
     17 F17         2.2019    6.0360   33.6247 F      1 LIG      -0.22300
     18 H18         7.4581    4.3495   24.8190 H      1 LIG       0.09000
     19 H19         6.5832    5.8838   24.4258 H      1 LIG       0.09000
     20 H20         7.7090    5.8209   25.8393 H      1 LIG       0.09000
     21 H21         6.3493    5.6244   28.1042 H      1 LIG       0.14400
     22 H22         5.2911    5.5754   30.1313 H      1 LIG       0.35300
     23 H23         2.7336    4.7511   31.5271 H      1 LIG       0.58600
     24 H24         6.3954    5.1520   32.0537 H      1 LIG       0.11500
     25 H25         7.4153    6.0103   34.1169 H      1 LIG       0.11500
     26 H26         5.9928    6.8648   35.9562 H      1 LIG       0.11500
     27 H27         3.5278    6.8648   35.7198 H      1 LIG       0.18100
@<TRIPOS>BOND
      1       1       2 1
      2       2       3 ar
      3       3       4 ar
      4       4       5 ar
      5       5       6 ar
      6       2       6 ar
      7       4       7 1
      8       7       8 2
      9       7       9 am
     10       9      10 1
     11      10      11 1
     12      11      12 ar
     13      12      13 ar
     14      13      14 ar
     15      14      15 ar
     16      15      16 ar
     17      11      16 ar
     18      16      17 1
     19       1      18 1
     20       1      19 1
     21       1      20 1
     22       3      21 1
     23       9      22 1
     24      10      23 1
     25      12      24 1
     26      13      25 1
     27      14      26 1
     28      15      27 1
@<TRIPOS>ALT_TYPE
CGenFF_4.0_ALT_TYPE_SET
CGenFF_4.0 1 CG331 2 CG2R51 3 CG2R51 4 CG2R52 5 NG2R50 6 OG2R50 7 CG2O1 8 OG2D1 9 NG2S1 10 NG3N1 11 CG2R61 12 CG2R61 13 CG2R61 14 CG2R61 15 CG2R61 16 CG2R66 17 FGR1 18 HGA3 19 HGA3 20 HGA3 21 HGR51 22 HGP1 23 HGP1 24 HGR61 25 HGR61 26 HGR61 27 HGR62
@<TRIPOS>MOLECULE
ZINC00151474$11
 27 28 0 0 0
****
USER_CHARGES
INVALID_CHARGES
Pose:   1 Cluster:   1 Fr_nu:      6 TotEn:    -9.62
@<TRIPOS>ATOM
      1 C1          9.0068    2.4251   31.7104 C.3    1 LIG      -0.17600
      2 C2          7.6923    2.2630   31.0247 C.ar   1 LIG       0.36400
      3 C3          6.5406    2.9741   31.2806 C.ar   1 LIG      -0.27100
      4 C4          5.6339    2.4519   30.3780 C.ar   1 LIG       0.08800
      5 N5          6.2251    1.4789   29.6561 N.ar   1 LIG      -0.46000
      6 O6          7.4574    1.3979   30.0668 O.2    1 LIG      -0.17400
      7 C7          4.2190    2.8343   30.2248 C.2    1 LIG       0.66600
      8 O8          3.4244    2.0210   29.6827 O.2    1 LIG      -0.48400
      9 N9          3.7127    4.0923   30.6975 N.am   1 LIG      -0.48900
     10 N10         4.4971    5.2576   30.7871 N.pl3  1 LIG      -0.66300
     11 C11         5.5007    5.6088   29.8198 C.ar   1 LIG       0.36700
     12 C12         6.6468    6.2996   30.2425 C.ar   1 LIG      -0.17300
     13 C13         7.6468    6.6383   29.3267 C.ar   1 LIG      -0.10100
     14 C14         7.5018    6.3058   27.9780 C.ar   1 LIG      -0.17100
     15 C15         6.3516    5.6437   27.5414 C.ar   1 LIG      -0.09000
     16 C16         5.3478    5.3003   28.4535 C.ar   1 LIG       0.11100
     17 F17         4.2169    4.7083   27.9947 F      1 LIG      -0.22300
     18 H18         9.2909    1.4686   32.1961 H      1 LIG       0.09000
     19 H19         8.9485    3.2212   32.4826 H      1 LIG       0.09000
     20 H20         9.7806    2.7008   30.9643 H      1 LIG       0.09000
     21 H21         6.3867    3.7446   32.0243 H      1 LIG       0.14400
     22 H22         2.7224    4.1329   31.0268 H      1 LIG       0.35300
     23 H23         4.3141    5.9174   31.5761 H      1 LIG       0.58600
     24 H24         6.7727    6.5558   31.2870 H      1 LIG       0.11500
     25 H25         8.5345    7.1581   29.6631 H      1 LIG       0.11500
     26 H26         8.2760    6.5700   27.2693 H      1 LIG       0.11500
     27 H27         6.2339    5.4049   26.4922 H      1 LIG       0.18100
@<TRIPOS>BOND
      1       1       2 1
      2       2       3 ar
      3       3       4 ar
      4       4       5 ar
      5       5       6 ar
      6       2       6 ar
      7       4       7 1
      8       7       8 2
      9       7       9 am
     10       9      10 1
     11      10      11 1
     12      11      12 ar
     13      12      13 ar
     14      13      14 ar
     15      14      15 ar
     16      15      16 ar
     17      11      16 ar
     18      16      17 1
     19       1      18 1
     20       1      19 1
     21       1      20 1
     22       3      21 1
     23       9      22 1
     24      10      23 1
     25      12      24 1
     26      13      25 1
     27      14      26 1
     28      15      27 1
@<TRIPOS>ALT_TYPE
CGenFF_4.0_ALT_TYPE_SET
CGenFF_4.0 1 CG331 2 CG2R51 3 CG2R51 4 CG2R52 5 NG2R50 6 OG2R50 7 CG2O1 8 OG2D1 9 NG2S1 10 NG3N1 11 CG2R61 12 CG2R61 13 CG2R61 14 CG2R61 15 CG2R61 16 CG2R66 17 FGR1 18 HGA3 19 HGA3 20 HGA3 21 HGR51 22 HGP1 23 HGP1 24 HGR61 25 HGR61 26 HGR61 27 HGR62
@<TRIPOS>MOLECULE
ZINC00151474$12
 27 28 0 0 0
****
USER_CHARGES
INVALID_CHARGES
Pose:   1 Cluster:   1 Fr_nu:    823 TotEn:    -9.77
@<TRIPOS>ATOM
      1 C1          5.1248    3.6345   26.5200 C.3    1 LIG      -0.17600
      2 C2          4.7779    4.2069   27.8531 C.ar   1 LIG       0.36400
      3 C3          5.6256    4.8866   28.7010 C.ar   1 LIG      -0.27100
      4 C4          4.8196    5.1945   29.7793 C.ar   1 LIG       0.08800
      5 N5          3.5760    4.7193   29.5666 N.ar   1 LIG      -0.46000
      6 O6          3.5889    4.1346   28.4040 O.2    1 LIG      -0.17400
      7 C7          5.2316    5.9276   30.9873 C.2    1 LIG       0.66600
      8 O8          6.4222    6.3283   31.0935 O.2    1 LIG      -0.48400
      9 N9          4.2916    6.1809   32.0404 N.am   1 LIG      -0.48900
     10 N10         4.6523    6.9287   33.1773 N.pl3  1 LIG      -0.66300
     11 C11         3.7751    7.0776   34.3071 C.ar   1 LIG       0.36700
     12 C12         2.8048    6.1033   34.6099 C.ar   1 LIG      -0.17300
     13 C13         1.9705    6.2588   35.7211 C.ar   1 LIG      -0.10100
     14 C14         2.1005    7.3794   36.5443 C.ar   1 LIG      -0.17100
     15 C15         3.0700    8.3441   36.2620 C.ar   1 LIG      -0.09000
     16 C16         3.9087    8.1944   35.1525 C.ar   1 LIG       0.11100
     17 F17         4.8412    9.1457   34.8939 F      1 LIG      -0.22300
     18 H18         6.1915    3.8270   26.2781 H      1 LIG       0.09000
     19 H19         4.4867    4.1001   25.7406 H      1 LIG       0.09000
     20 H20         4.9479    2.5390   26.5310 H      1 LIG       0.09000
     21 H21         6.6720    5.1218   28.5548 H      1 LIG       0.14400
     22 H22         3.3093    5.8455   31.9283 H      1 LIG       0.35300
     23 H23         5.5575    7.4511   33.1770 H      1 LIG       0.58600
     24 H24         2.7044    5.2104   34.0083 H      1 LIG       0.11500
     25 H25         1.2274    5.5055   35.9486 H      1 LIG       0.11500
     26 H26         1.4541    7.4970   37.4045 H      1 LIG       0.11500
     27 H27         3.1718    9.2091   36.9047 H      1 LIG       0.18100
@<TRIPOS>BOND
      1       1       2 1
      2       2       3 ar
      3       3       4 ar
      4       4       5 ar
      5       5       6 ar
      6       2       6 ar
      7       4       7 1
      8       7       8 2
      9       7       9 am
     10       9      10 1
     11      10      11 1
     12      11      12 ar
     13      12      13 ar
     14      13      14 ar
     15      14      15 ar
     16      15      16 ar
     17      11      16 ar
     18      16      17 1
     19       1      18 1
     20       1      19 1
     21       1      20 1
     22       3      21 1
     23       9      22 1
     24      10      23 1
     25      12      24 1
     26      13      25 1
     27      14      26 1
     28      15      27 1
@<TRIPOS>ALT_TYPE
CGenFF_4.0_ALT_TYPE_SET
CGenFF_4.0 1 CG331 2 CG2R51 3 CG2R51 4 CG2R52 5 NG2R50 6 OG2R50 7 CG2O1 8 OG2D1 9 NG2S1 10 NG3N1 11 CG2R61 12 CG2R61 13 CG2R61 14 CG2R61 15 CG2R61 16 CG2R66 17 FGR1 18 HGA3 19 HGA3 20 HGA3 21 HGR51 22 HGP1 23 HGP1 24 HGR61 25 HGR61 26 HGR61 27 HGR62
@<TRIPOS>MOLECULE
ZINC00316079
 30 31 0 0 0
****
USER_CHARGES
INVALID_CHARGES
Pose:   1 Cluster:   1 Fr_nu:   1426 TotEn:   -10.59
@<TRIPOS>ATOM
      1 C1          4.0757    4.0159   27.8723 C.ar   1 LIG      -0.17100
      2 C2          4.5867    4.0765   26.5722 C.ar   1 LIG      -0.08700
      3 C3          5.7012    4.8722   26.2945 C.ar   1 LIG       0.12400
      4 C4          6.3054    5.6079   27.3176 C.ar   1 LIG      -0.08700
      5 C5          5.7966    5.5501   28.6191 C.ar   1 LIG      -0.17100
      6 C6          4.6725    4.7490   28.9063 C.ar   1 LIG       0.23100
      7 O7          4.1198    4.6522   30.1943 O.3    1 LIG      -0.38000
      8 C8          4.6073    5.3309   31.3534 C.3    1 LIG       0.08200
      9 C9          5.8849    4.7170   31.8615 C.2    1 LIG       0.43100
     10 O10         6.3527    3.6905   31.2967 O.2    1 LIG      -0.51700
     11 N11         6.5701    5.2774   32.9945 N.am   1 LIG      -0.38100
     12 C12         7.7815    4.7008   33.5499 C.3    1 LIG       0.00300
     13 C13         8.0588    5.4806   34.8282 C.3    1 LIG      -0.18100
     14 C14         7.2165    6.7511   34.7364 C.3    1 LIG      -0.18100
     15 C15         6.1253    6.4583   33.7148 C.3    1 LIG       0.00300
     16 F16         6.1964    4.9299   25.0338 F      1 LIG      -0.21000
     17 H17         3.2120    3.3963   28.0783 H      1 LIG       0.11500
     18 H18         4.1179    3.5057   25.7809 H      1 LIG       0.18100
     19 H19         7.1695    6.2236   27.1032 H      1 LIG       0.18100
     20 H20         6.2868    6.1269   29.3907 H      1 LIG       0.11500
     21 H21         3.8410    5.2525   32.1520 H      1 LIG       0.09000
     22 H22         4.7518    6.4087   31.1286 H      1 LIG       0.09000
     23 H23         8.6173    4.8232   32.8273 H      1 LIG       0.09000
     24 H24         7.6309    3.6226   33.7761 H      1 LIG       0.09000
     25 H25         9.1398    5.7190   34.9305 H      1 LIG       0.09000
     26 H26         7.7324    4.8831   35.7079 H      1 LIG       0.09000
     27 H27         7.8510    7.5902   34.3748 H      1 LIG       0.09000
     28 H28         6.7840    7.0212   35.7243 H      1 LIG       0.09000
     29 H29         5.1610    6.2441   34.2245 H      1 LIG       0.09000
     30 H30         6.0067    7.3179   33.0204 H      1 LIG       0.09000
@<TRIPOS>BOND
      1       1       2 ar
      2       2       3 ar
      3       3       4 ar
      4       4       5 ar
      5       5       6 ar
      6       1       6 ar
      7       6       7 1
      8       7       8 1
      9       8       9 1
     10       9      10 2
     11       9      11 am
     12      11      12 1
     13      12      13 1
     14      13      14 1
     15      14      15 1
     16      11      15 1
     17       3      16 1
     18       1      17 1
     19       2      18 1
     20       4      19 1
     21       5      20 1
     22       8      21 1
     23       8      22 1
     24      12      23 1
     25      12      24 1
     26      13      25 1
     27      13      26 1
     28      14      27 1
     29      14      28 1
     30      15      29 1
     31      15      30 1
@<TRIPOS>ALT_TYPE
CGenFF_4.0_ALT_TYPE_SET
CGenFF_4.0 1 CG2R61 2 CG2R61 3 CG2R66 4 CG2R61 5 CG2R61 6 CG2R61 7 OG301 8 CG321 9 CG2O1 10 OG2D1 11 NG2S0 12 CG3C52 13 CG3C52 14 CG3C52 15 CG3C52 16 FGR1 17 HGR61 18 HGR62 19 HGR62 20 HGR61 21 HGA2 22 HGA2 23 HGA2 24 HGA2 25 HGA2 26 HGA2 27 HGA2 28 HGA2 29 HGA2 30 HGA2
@<TRIPOS>MOLECULE
ZINC00316079$2
 30 31 0 0 0
****
USER_CHARGES
INVALID_CHARGES
Pose:   1 Cluster:   1 Fr_nu:    936 TotEn:   -11.74
@<TRIPOS>ATOM
      1 C1          3.3985    5.7068   33.7826 C.ar   1 LIG      -0.17100
      2 C2          2.4701    5.9799   34.7923 C.ar   1 LIG      -0.08700
      3 C3          2.0318    7.2893   35.0071 C.ar   1 LIG       0.12400
      4 C4          2.5215    8.3283   34.2114 C.ar   1 LIG      -0.08700
      5 C5          3.4495    8.0588   33.2007 C.ar   1 LIG      -0.17100
      6 C6          3.8965    6.7502   32.9757 C.ar   1 LIG       0.23100
      7 O7          4.8289    6.5342   31.9471 O.3    1 LIG      -0.38000
      8 C8          5.3817    5.2662   31.5889 C.3    1 LIG       0.08200
      9 C9          4.3827    4.4109   30.8556 C.2    1 LIG       0.43100
     10 O10         3.2414    4.8754   30.5854 O.2    1 LIG      -0.51700
     11 N11         4.7204    3.0752   30.4442 N.am   1 LIG      -0.38100
     12 C12         5.9999    2.4391   30.7078 C.3    1 LIG       0.00300
     13 C13         5.8554    1.0060   30.2123 C.3    1 LIG      -0.18100
     14 C14         4.6208    0.9937   29.3139 C.3    1 LIG      -0.18100
     15 C15         3.8101    2.2240   29.6990 C.3    1 LIG       0.00300
     16 F16         1.1318    7.5514   35.9866 F      1 LIG      -0.21000
     17 H17         3.7163    4.6840   33.6368 H      1 LIG       0.11500
     18 H18         2.0901    5.1746   35.4076 H      1 LIG       0.18100
     19 H19         2.1828    9.3430   34.3765 H      1 LIG       0.18100
     20 H20         3.8231    8.8700   32.5887 H      1 LIG       0.11500
     21 H21         5.7537    4.7453   32.4961 H      1 LIG       0.09000
     22 H22         6.2496    5.4402   30.9198 H      1 LIG       0.09000
     23 H23         6.2248    2.4500   31.7960 H      1 LIG       0.09000
     24 H24         6.8019    2.9666   30.1475 H      1 LIG       0.09000
     25 H25         5.6899    0.3268   31.0776 H      1 LIG       0.09000
     26 H26         6.7612    0.6760   29.6587 H      1 LIG       0.09000
     27 H27         4.9366    1.0730   28.2502 H      1 LIG       0.09000
     28 H28         4.0309    0.0614   29.4502 H      1 LIG       0.09000
     29 H29         2.9517    1.9407   30.3459 H      1 LIG       0.09000
     30 H30         3.4428    2.7487   28.7902 H      1 LIG       0.09000
@<TRIPOS>BOND
      1       1       2 ar
      2       2       3 ar
      3       3       4 ar
      4       4       5 ar
      5       5       6 ar
      6       1       6 ar
      7       6       7 1
      8       7       8 1
      9       8       9 1
     10       9      10 2
     11       9      11 am
     12      11      12 1
     13      12      13 1
     14      13      14 1
     15      14      15 1
     16      11      15 1
     17       3      16 1
     18       1      17 1
     19       2      18 1
     20       4      19 1
     21       5      20 1
     22       8      21 1
     23       8      22 1
     24      12      23 1
     25      12      24 1
     26      13      25 1
     27      13      26 1
     28      14      27 1
     29      14      28 1
     30      15      29 1
     31      15      30 1
@<TRIPOS>ALT_TYPE
CGenFF_4.0_ALT_TYPE_SET
CGenFF_4.0 1 CG2R61 2 CG2R61 3 CG2R66 4 CG2R61 5 CG2R61 6 CG2R61 7 OG301 8 CG321 9 CG2O1 10 OG2D1 11 NG2S0 12 CG3C52 13 CG3C52 14 CG3C52 15 CG3C52 16 FGR1 17 HGR61 18 HGR62 19 HGR62 20 HGR61 21 HGA2 22 HGA2 23 HGA2 24 HGA2 25 HGA2 26 HGA2 27 HGA2 28 HGA2 29 HGA2 30 HGA2
@<TRIPOS>MOLECULE
ZINC00316079$3
 30 31 0 0 0
****
USER_CHARGES
INVALID_CHARGES
Pose:   1 Cluster:   1 Fr_nu:    376 TotEn:    -9.90
@<TRIPOS>ATOM
      1 C1          5.7571    6.6353   33.4953 C.ar   1 LIG      -0.17100
      2 C2          5.9632    7.1701   34.7712 C.ar   1 LIG      -0.08700
      3 C3          4.9985    6.9992   35.7679 C.ar   1 LIG       0.12400
      4 C4          3.8254    6.2925   35.4898 C.ar   1 LIG      -0.08700
      5 C5          3.6161    5.7565   34.2153 C.ar   1 LIG      -0.17100
      6 C6          4.5760    5.9216   33.2085 C.ar   1 LIG       0.23100
      7 O7          4.3205    5.3656   31.9464 O.3    1 LIG      -0.38000
      8 C8          5.2062    5.4559   30.8319 C.3    1 LIG       0.08200
      9 C9          4.6250    4.7519   29.6396 C.2    1 LIG       0.43100
     10 O10         3.4858    4.2169   29.7252 O.2    1 LIG      -0.51700
     11 N11         5.3525    4.6801   28.4014 N.am   1 LIG      -0.38100
     12 C12         6.6619    5.2734   28.1894 C.3    1 LIG       0.00300
     13 C13         6.9689    5.0714   26.7114 C.3    1 LIG      -0.18100
     14 C14         5.9939    4.0031   26.2219 C.3    1 LIG      -0.18100
     15 C15         4.8508    3.9867   27.2282 C.3    1 LIG       0.00300
     16 F16         5.2007    7.5186   37.0039 F      1 LIG      -0.21000
     17 H17         6.5190    6.7817   32.7421 H      1 LIG       0.11500
     18 H18         6.8721    7.7174   34.9861 H      1 LIG       0.18100
     19 H19         3.0774    6.1593   36.2607 H      1 LIG       0.18100
     20 H20         2.7044    5.2104   34.0083 H      1 LIG       0.11500
     21 H21         5.3698    6.5242   30.5748 H      1 LIG       0.09000
     22 H22         6.1763    4.9809   31.0915 H      1 LIG       0.09000
     23 H23         6.6445    6.3570   28.4364 H      1 LIG       0.09000
     24 H24         7.4150    4.7515   28.8187 H      1 LIG       0.09000
     25 H25         8.0240    4.7571   26.5563 H      1 LIG       0.09000
     26 H26         6.7864    6.0197   26.1592 H      1 LIG       0.09000
     27 H27         6.5013    3.0132   26.2177 H      1 LIG       0.09000
     28 H28         5.6276    4.2292   25.1970 H      1 LIG       0.09000
     29 H29         4.5715    2.9414   27.4841 H      1 LIG       0.09000
     30 H30         3.9671    4.5276   26.8257 H      1 LIG       0.09000
@<TRIPOS>BOND
      1       1       2 ar
      2       2       3 ar
      3       3       4 ar
      4       4       5 ar
      5       5       6 ar
      6       1       6 ar
      7       6       7 1
      8       7       8 1
      9       8       9 1
     10       9      10 2
     11       9      11 am
     12      11      12 1
     13      12      13 1
     14      13      14 1
     15      14      15 1
     16      11      15 1
     17       3      16 1
     18       1      17 1
     19       2      18 1
     20       4      19 1
     21       5      20 1
     22       8      21 1
     23       8      22 1
     24      12      23 1
     25      12      24 1
     26      13      25 1
     27      13      26 1
     28      14      27 1
     29      14      28 1
     30      15      29 1
     31      15      30 1
@<TRIPOS>ALT_TYPE
CGenFF_4.0_ALT_TYPE_SET
CGenFF_4.0 1 CG2R61 2 CG2R61 3 CG2R66 4 CG2R61 5 CG2R61 6 CG2R61 7 OG301 8 CG321 9 CG2O1 10 OG2D1 11 NG2S0 12 CG3C52 13 CG3C52 14 CG3C52 15 CG3C52 16 FGR1 17 HGR61 18 HGR62 19 HGR62 20 HGR61 21 HGA2 22 HGA2 23 HGA2 24 HGA2 25 HGA2 26 HGA2 27 HGA2 28 HGA2 29 HGA2 30 HGA2
@<TRIPOS>MOLECULE
ZINC00316079$4
 30 31 0 0 0
****
USER_CHARGES
INVALID_CHARGES
Pose:   1 Cluster:   1 Fr_nu:    191 TotEn:   -10.20
@<TRIPOS>ATOM
      1 C1          4.8928    3.7455   26.4734 C.ar   1 LIG      -0.17100
      2 C2          4.0726    3.3483   27.5339 C.ar   1 LIG      -0.08700
      3 C3          4.5353    3.4405   28.8493 C.ar   1 LIG       0.12400
      4 C4          5.8192    3.9300   29.1048 C.ar   1 LIG      -0.08700
      5 C5          6.6422    4.3285   28.0463 C.ar   1 LIG      -0.17100
      6 C6          6.1812    4.2382   26.7177 C.ar   1 LIG       0.23100
      7 O7          6.9647    4.6252   25.6211 O.3    1 LIG      -0.38000
      8 C8          8.2793    5.1652   25.7201 C.3    1 LIG       0.08200
      9 C9          8.7824    5.5056   24.3498 C.2    1 LIG       0.43100
     10 O10         9.7864    4.8919   23.8971 O.2    1 LIG      -0.51700
     11 N11         8.1414    6.5138   23.5480 N.am   1 LIG      -0.38100
     12 C12         8.5724    6.8406   22.2002 C.3    1 LIG       0.00300
     13 C13         7.5440    7.8299   21.6687 C.3    1 LIG      -0.18100
     14 C14         6.7937    8.3512   22.8918 C.3    1 LIG      -0.18100
     15 C15         7.0135    7.3179   23.9888 C.3    1 LIG       0.00300
     16 F16         3.7394    3.0550   29.8770 F      1 LIG      -0.21000
     17 H17         4.5263    3.6717   25.4574 H      1 LIG       0.11500
     18 H18         3.0785    2.9693   27.3345 H      1 LIG       0.18100
     19 H19         6.1782    4.0013   30.1235 H      1 LIG       0.18100
     20 H20         7.6315    4.7027   28.2709 H      1 LIG       0.11500
     21 H21         8.9511    4.4158   26.1930 H      1 LIG       0.09000
     22 H22         8.2711    6.0833   26.3449 H      1 LIG       0.09000
     23 H23         9.5813    7.3061   22.2343 H      1 LIG       0.09000
     24 H24         8.5979    5.9264   21.5678 H      1 LIG       0.09000
     25 H25         8.0302    8.6582   21.1090 H      1 LIG       0.09000
     26 H26         6.8326    7.3027   20.9954 H      1 LIG       0.09000
     27 H27         5.7120    8.4880   22.6747 H      1 LIG       0.09000
     28 H28         7.2288    9.3260   23.2048 H      1 LIG       0.09000
     29 H29         7.2437    7.8208   24.9527 H      1 LIG       0.09000
     30 H30         6.1143    6.6743   24.0991 H      1 LIG       0.09000
@<TRIPOS>BOND
      1       1       2 ar
      2       2       3 ar
      3       3       4 ar
      4       4       5 ar
      5       5       6 ar
      6       1       6 ar
      7       6       7 1
      8       7       8 1
      9       8       9 1
     10       9      10 2
     11       9      11 am
     12      11      12 1
     13      12      13 1
     14      13      14 1
     15      14      15 1
     16      11      15 1
     17       3      16 1
     18       1      17 1
     19       2      18 1
     20       4      19 1
     21       5      20 1
     22       8      21 1
     23       8      22 1
     24      12      23 1
     25      12      24 1
     26      13      25 1
     27      13      26 1
     28      14      27 1
     29      14      28 1
     30      15      29 1
     31      15      30 1
@<TRIPOS>ALT_TYPE
CGenFF_4.0_ALT_TYPE_SET
CGenFF_4.0 1 CG2R61 2 CG2R61 3 CG2R66 4 CG2R61 5 CG2R61 6 CG2R61 7 OG301 8 CG321 9 CG2O1 10 OG2D1 11 NG2S0 12 CG3C52 13 CG3C52 14 CG3C52 15 CG3C52 16 FGR1 17 HGR61 18 HGR62 19 HGR62 20 HGR61 21 HGA2 22 HGA2 23 HGA2 24 HGA2 25 HGA2 26 HGA2 27 HGA2 28 HGA2 29 HGA2 30 HGA2
@<TRIPOS>MOLECULE
ZINC00316079$5
 30 31 0 0 0
****
USER_CHARGES
INVALID_CHARGES
Pose:   1 Cluster:   1 Fr_nu:   2488 TotEn:   -10.66
@<TRIPOS>ATOM
      1 C1        -10.2047   17.6669   27.2487 C.ar   1 LIG      -0.17100
      2 C2         -9.2834   18.6306   27.6702 C.ar   1 LIG      -0.08700
      3 C3         -8.0836   18.8033   26.9753 C.ar   1 LIG       0.12400
      4 C4         -7.8045   18.0117   25.8580 C.ar   1 LIG      -0.08700
      5 C5         -8.7237   17.0470   25.4332 C.ar   1 LIG      -0.17100
      6 C6         -9.9362   16.8673   26.1300 C.ar   1 LIG       0.23100
      7 O7        -10.8950   15.9136   25.7494 O.3    1 LIG      -0.38000
      8 C8        -10.7735   15.0208   24.6404 C.3    1 LIG       0.08200
      9 C9         -9.7816   13.9227   24.9172 C.2    1 LIG       0.43100
     10 O10        -9.2704   13.8176   26.0656 O.2    1 LIG      -0.51700
     11 N11        -9.4203   12.9830   23.8910 N.am   1 LIG      -0.38100
     12 C12        -8.4501   11.9222   24.0959 C.3    1 LIG       0.00300
     13 C13        -8.2444   11.2846   22.7282 C.3    1 LIG      -0.18100
     14 C14        -9.4217   11.7428   21.8706 C.3    1 LIG      -0.18100
     15 C15        -9.9698   12.9932   22.5460 C.3    1 LIG       0.00300
     16 F16        -7.1907   19.7377   27.3849 F      1 LIG      -0.21000
     17 H17       -11.1315   17.5398   27.7935 H      1 LIG       0.11500
     18 H18        -9.5010   19.2429   28.5360 H      1 LIG       0.18100
     19 H19        -6.8747   18.1444   25.3198 H      1 LIG       0.18100
     20 H20        -8.4793   16.4472   24.5677 H      1 LIG       0.11500
     21 H21       -10.4864   15.5866   23.7290 H      1 LIG       0.09000
     22 H22       -11.7644   14.5582   24.4526 H      1 LIG       0.09000
     23 H23        -8.8566   11.1798   24.8165 H      1 LIG       0.09000
     24 H24        -7.4936   12.3391   24.4800 H      1 LIG       0.09000
     25 H25        -8.2040   10.1760   22.8002 H      1 LIG       0.09000
     26 H26        -7.2953   11.6561   22.2825 H      1 LIG       0.09000
     27 H27        -9.1036   11.9530   20.8263 H      1 LIG       0.09000
     28 H28       -10.2029   10.9510   21.8613 H      1 LIG       0.09000
     29 H29        -9.6289   13.9055   22.0103 H      1 LIG       0.09000
     30 H30       -11.0803   12.9621   22.5774 H      1 LIG       0.09000
@<TRIPOS>BOND
      1       1       2 ar
      2       2       3 ar
      3       3       4 ar
      4       4       5 ar
      5       5       6 ar
      6       1       6 ar
      7       6       7 1
      8       7       8 1
      9       8       9 1
     10       9      10 2
     11       9      11 am
     12      11      12 1
     13      12      13 1
     14      13      14 1
     15      14      15 1
     16      11      15 1
     17       3      16 1
     18       1      17 1
     19       2      18 1
     20       4      19 1
     21       5      20 1
     22       8      21 1
     23       8      22 1
     24      12      23 1
     25      12      24 1
     26      13      25 1
     27      13      26 1
     28      14      27 1
     29      14      28 1
     30      15      29 1
     31      15      30 1
@<TRIPOS>ALT_TYPE
CGenFF_4.0_ALT_TYPE_SET
CGenFF_4.0 1 CG2R61 2 CG2R61 3 CG2R66 4 CG2R61 5 CG2R61 6 CG2R61 7 OG301 8 CG321 9 CG2O1 10 OG2D1 11 NG2S0 12 CG3C52 13 CG3C52 14 CG3C52 15 CG3C52 16 FGR1 17 HGR61 18 HGR62 19 HGR62 20 HGR61 21 HGA2 22 HGA2 23 HGA2 24 HGA2 25 HGA2 26 HGA2 27 HGA2 28 HGA2 29 HGA2 30 HGA2
@<TRIPOS>MOLECULE
ZINC00316079$6
 30 31 0 0 0
****
USER_CHARGES
INVALID_CHARGES
Pose:   1 Cluster:   1 Fr_nu:    165 TotEn:   -11.21
@<TRIPOS>ATOM
      1 C1          8.9904    5.6563   23.5572 C.ar   1 LIG      -0.17100
      2 C2          9.0174    6.5438   22.4770 C.ar   1 LIG      -0.08700
      3 C3          7.8687    7.2602   22.1307 C.ar   1 LIG       0.12400
      4 C4          6.6918    7.0892   22.8649 C.ar   1 LIG      -0.08700
      5 C5          6.6613    6.2023   23.9460 C.ar   1 LIG      -0.17100
      6 C6          7.8165    5.4768   24.3003 C.ar   1 LIG       0.23100
      7 O7          7.8391    4.5755   25.3748 O.3    1 LIG      -0.38000
      8 C8          6.7206    4.2949   26.2146 C.3    1 LIG       0.08200
      9 C9          7.0906    3.2862   27.2637 C.2    1 LIG       0.43100
     10 O10         8.2551    2.8013   27.2796 O.2    1 LIG      -0.51700
     11 N11         6.1327    2.8670   28.2508 N.am   1 LIG      -0.38100
     12 C12         4.7634    3.3489   28.3143 C.3    1 LIG       0.00300
     13 C13         4.0928    2.5345   29.4129 C.3    1 LIG      -0.18100
     14 C14         5.2257    1.8984   30.2152 C.3    1 LIG      -0.18100
     15 C15         6.4463    1.9185   29.3045 C.3    1 LIG       0.00300
     16 F16         7.8957    8.1206   21.0832 F      1 LIG      -0.21000
     17 H17         9.8849    5.1053   23.8186 H      1 LIG       0.11500
     18 H18         9.9296    6.6752   21.9092 H      1 LIG       0.18100
     19 H19         5.8017    7.6439   22.5971 H      1 LIG       0.18100
     20 H20         5.7381    6.0884   24.4976 H      1 LIG       0.11500
     21 H21         6.3914    5.2300   26.7161 H      1 LIG       0.09000
     22 H22         5.8897    3.8872   25.6004 H      1 LIG       0.09000
     23 H23         4.7593    4.4298   28.5730 H      1 LIG       0.09000
     24 H24         4.2471    3.1878   27.3433 H      1 LIG       0.09000
     25 H25         3.4513    3.1743   30.0570 H      1 LIG       0.09000
     26 H26         3.4686    1.7348   28.9564 H      1 LIG       0.09000
     27 H27         4.9692    0.8621   30.5254 H      1 LIG       0.09000
     28 H28         5.4265    2.5111   31.1215 H      1 LIG       0.09000
     29 H29         7.3474    2.2462   29.8675 H      1 LIG       0.09000
     30 H30         6.6207    0.9140   28.8616 H      1 LIG       0.09000
@<TRIPOS>BOND
      1       1       2 ar
      2       2       3 ar
      3       3       4 ar
      4       4       5 ar
      5       5       6 ar
      6       1       6 ar
      7       6       7 1
      8       7       8 1
      9       8       9 1
     10       9      10 2
     11       9      11 am
     12      11      12 1
     13      12      13 1
     14      13      14 1
     15      14      15 1
     16      11      15 1
     17       3      16 1
     18       1      17 1
     19       2      18 1
     20       4      19 1
     21       5      20 1
     22       8      21 1
     23       8      22 1
     24      12      23 1
     25      12      24 1
     26      13      25 1
     27      13      26 1
     28      14      27 1
     29      14      28 1
     30      15      29 1
     31      15      30 1
@<TRIPOS>ALT_TYPE
CGenFF_4.0_ALT_TYPE_SET
CGenFF_4.0 1 CG2R61 2 CG2R61 3 CG2R66 4 CG2R61 5 CG2R61 6 CG2R61 7 OG301 8 CG321 9 CG2O1 10 OG2D1 11 NG2S0 12 CG3C52 13 CG3C52 14 CG3C52 15 CG3C52 16 FGR1 17 HGR61 18 HGR62 19 HGR62 20 HGR61 21 HGA2 22 HGA2 23 HGA2 24 HGA2 25 HGA2 26 HGA2 27 HGA2 28 HGA2 29 HGA2 30 HGA2
@<TRIPOS>MOLECULE
ZINC00316079$7
 30 31 0 0 0
****
USER_CHARGES
INVALID_CHARGES
Pose:   1 Cluster:   1 Fr_nu:    132 TotEn:   -13.78
@<TRIPOS>ATOM
      1 C1          6.5182    5.6972   23.9830 C.ar   1 LIG      -0.17100
      2 C2          6.9062    6.6911   23.0793 C.ar   1 LIG      -0.08700
      3 C3          8.2316    7.1334   23.0518 C.ar   1 LIG       0.12400
      4 C4          9.1697    6.5813   23.9283 C.ar   1 LIG      -0.08700
      5 C5          8.7850    5.5870   24.8336 C.ar   1 LIG      -0.17100
      6 C6          7.4499    5.1371   24.8665 C.ar   1 LIG       0.23100
      7 O7          7.0116    4.1446   25.7548 O.3    1 LIG      -0.38000
      8 C8          7.8395    3.5061   26.7224 C.3    1 LIG       0.08200
      9 C9          7.0178    2.5400   27.5212 C.2    1 LIG       0.43100
     10 O10         7.2855    1.3096   27.4557 O.2    1 LIG      -0.51700
     11 N11         5.9352    2.9909   28.3546 N.am   1 LIG      -0.38100
     12 C12         5.5734    4.3858   28.5459 C.3    1 LIG       0.00300
     13 C13         4.5022    4.3863   29.6285 C.3    1 LIG      -0.18100
     14 C14         3.9954    2.9489   29.7170 C.3    1 LIG      -0.18100
     15 C15         5.0897    2.0822   29.1084 C.3    1 LIG       0.00300
     16 F16         8.6071    8.0971   22.1752 F      1 LIG      -0.21000
     17 H17         5.4892    5.3608   23.9984 H      1 LIG       0.11500
     18 H18         6.1784    7.1178   22.4011 H      1 LIG       0.18100
     19 H19        10.1966    6.9232   23.9070 H      1 LIG       0.18100
     20 H20         9.5304    5.1757   25.5003 H      1 LIG       0.11500
     21 H21         8.2830    4.2609   27.4060 H      1 LIG       0.09000
     22 H22         8.6612    2.9645   26.2049 H      1 LIG       0.09000
     23 H23         6.4547    4.9777   28.8744 H      1 LIG       0.09000
     24 H24         5.1661    4.8008   27.5990 H      1 LIG       0.09000
     25 H25         4.9550    4.6793   30.6014 H      1 LIG       0.09000
     26 H26         3.6782    5.0911   29.3830 H      1 LIG       0.09000
     27 H27         3.7862    2.6577   30.7693 H      1 LIG       0.09000
     28 H28         3.0633    2.8477   29.1183 H      1 LIG       0.09000
     29 H29         4.6501    1.3129   28.4368 H      1 LIG       0.09000
     30 H30         5.6884    1.5913   29.9062 H      1 LIG       0.09000
@<TRIPOS>BOND
      1       1       2 ar
      2       2       3 ar
      3       3       4 ar
      4       4       5 ar
      5       5       6 ar
      6       1       6 ar
      7       6       7 1
      8       7       8 1
      9       8       9 1
     10       9      10 2
     11       9      11 am
     12      11      12 1
     13      12      13 1
     14      13      14 1
     15      14      15 1
     16      11      15 1
     17       3      16 1
     18       1      17 1
     19       2      18 1
     20       4      19 1
     21       5      20 1
     22       8      21 1
     23       8      22 1
     24      12      23 1
     25      12      24 1
     26      13      25 1
     27      13      26 1
     28      14      27 1
     29      14      28 1
     30      15      29 1
     31      15      30 1
@<TRIPOS>ALT_TYPE
CGenFF_4.0_ALT_TYPE_SET
CGenFF_4.0 1 CG2R61 2 CG2R61 3 CG2R66 4 CG2R61 5 CG2R61 6 CG2R61 7 OG301 8 CG321 9 CG2O1 10 OG2D1 11 NG2S0 12 CG3C52 13 CG3C52 14 CG3C52 15 CG3C52 16 FGR1 17 HGR61 18 HGR62 19 HGR62 20 HGR61 21 HGA2 22 HGA2 23 HGA2 24 HGA2 25 HGA2 26 HGA2 27 HGA2 28 HGA2 29 HGA2 30 HGA2
@<TRIPOS>MOLECULE
ZINC00530971
 20 21 0 0 0
****
USER_CHARGES
INVALID_CHARGES
Pose:   1 Cluster:   1 Fr_nu:   4074 TotEn:   -12.48
@<TRIPOS>ATOM
      1 C1          7.8389    5.0990   25.2986 C.ar   1 LIG      -0.11700
      2 C2          8.2910    5.6150   24.0803 C.ar   1 LIG      -0.11900
      3 C3          7.3809    5.8974   23.0541 C.ar   1 LIG       0.11000
      4 C4          6.0180    5.6612   23.2529 C.ar   1 LIG      -0.11900
      5 C5          5.5620    5.1451   24.4699 C.ar   1 LIG      -0.11700
      6 C6          6.4686    4.8580   25.5074 C.ar   1 LIG       0.06800
      7 C7          5.9981    4.3112   26.8009 C.ar   1 LIG       0.25300
      8 N8          6.8251    4.0168   27.8332 N.ar   1 LIG      -0.06000
      9 N9          6.1954    3.5358   28.9040 N.ar   1 LIG      -0.19400
     10 C10         4.8610    3.4441   28.7307 C.ar   1 LIG       0.16200
     11 S11         4.3908    3.9683   27.2046 S.2    1 LIG      -0.26800
     12 N12         3.9714    2.9589   29.7320 N.pl3  1 LIG      -0.65900
     13 O13         7.8200    6.4118   21.8363 O.3    1 LIG      -0.53000
     14 H14         8.5625    4.8890   26.0762 H      1 LIG       0.11500
     15 H15         9.3486    5.7949   23.9354 H      1 LIG       0.11500
     16 H16         5.3103    5.8777   22.4627 H      1 LIG       0.11500
     17 H17         4.5009    4.9728   24.5938 H      1 LIG       0.11500
     18 H18         2.9454    2.9085   29.5459 H      1 LIG       0.35500
     19 H19         4.3396    2.6504   30.6588 H      1 LIG       0.35500
     20 H20         8.8014    6.5940   21.6615 H      1 LIG       0.42000
@<TRIPOS>BOND
      1       1       2 ar
      2       2       3 ar
      3       3       4 ar
      4       4       5 ar
      5       5       6 ar
      6       1       6 ar
      7       6       7 1
      8       7       8 ar
      9       8       9 ar
     10       9      10 ar
     11      10      11 ar
     12       7      11 ar
     13      10      12 1
     14       3      13 1
     15       1      14 1
     16       2      15 1
     17       4      16 1
     18       5      17 1
     19      12      18 1
     20      12      19 1
     21      13      20 1
@<TRIPOS>ALT_TYPE
CGenFF_4.0_ALT_TYPE_SET
CGenFF_4.0 1 CG2R61 2 CG2R61 3 CG2R61 4 CG2R61 5 CG2R61 6 CG2R61 7 CG2R53 8 NG2R50 9 NG2R50 10 CG2R53 11 SG2R50 12 NG321 13 OG311 14 HGR61 15 HGR61 16 HGR61 17 HGR61 18 HGPAM2 19 HGPAM2 20 HGP1
@<TRIPOS>MOLECULE
ZINC01076074
 16 16 0 0 0
****
USER_CHARGES
INVALID_CHARGES
Pose:   1 Cluster:   1 Fr_nu:  21526 TotEn:   -10.74
@<TRIPOS>ATOM
      1 C1          4.2362    3.6750   26.9191 C.3    1 LIG      -0.10000
      2 O2          4.4860    4.2559   28.1809 O.3    1 LIG      -0.33500
      3 C3          3.8217    3.5266   29.1943 C.3    1 LIG       0.15600
      4 C4          4.6698    2.3857   29.6617 C.ar   1 LIG       0.03300
      5 N5          4.2791    1.0921   29.6092 N.ar   1 LIG      -0.07600
      6 N6          5.1949    0.2468   30.0786 N.ar   1 LIG      -0.07300
      7 C7          6.3138    0.8697   30.5048 C.ar   1 LIG       0.15000
      8 S8          6.2177    2.5394   30.3152 S.2    1 LIG      -0.25600
      9 N9          7.4352    0.1800   31.0490 N.pl3  1 LIG      -0.65900
     10 H10         4.5481    2.6071   26.8919 H      1 LIG       0.09000
     11 H11         4.8310    4.2176   26.1561 H      1 LIG       0.09000
     12 H12         3.1633    3.7735   26.6425 H      1 LIG       0.09000
     13 H13         3.6563    4.2050   30.0570 H      1 LIG       0.09000
     14 H14         2.8142    3.1653   28.8800 H      1 LIG       0.09000
     15 H15         7.4220   -0.8603   31.1357 H      1 LIG       0.35500
     16 H16         8.2775    0.7097   31.3644 H      1 LIG       0.35500
@<TRIPOS>BOND
      1       1       2 1
      2       2       3 1
      3       3       4 1
      4       4       5 ar
      5       5       6 ar
      6       6       7 ar
      7       7       8 ar
      8       4       8 ar
      9       7       9 1
     10       1      10 1
     11       1      11 1
     12       1      12 1
     13       3      13 1
     14       3      14 1
     15       9      15 1
     16       9      16 1
@<TRIPOS>ALT_TYPE
CGenFF_4.0_ALT_TYPE_SET
CGenFF_4.0 1 CG331 2 OG301 3 CG321 4 CG2R53 5 NG2R50 6 NG2R50 7 CG2R53 8 SG2R50 9 NG321 10 HGA3 11 HGA3 12 HGA3 13 HGA2 14 HGA2 15 HGPAM2 16 HGPAM2
@<TRIPOS>MOLECULE
ZINC01076074$2
 16 16 0 0 0
****
USER_CHARGES
INVALID_CHARGES
Pose:   1 Cluster:   1 Fr_nu:  17733 TotEn:   -10.21
@<TRIPOS>ATOM
      1 C1          4.3520    1.2948   29.4630 C.3    1 LIG      -0.10000
      2 O2          3.3140    2.1866   29.1180 O.3    1 LIG      -0.33500
      3 C3          3.8089    3.5098   29.0521 C.3    1 LIG       0.15600
      4 C4          4.3606    3.7949   27.6908 C.ar   1 LIG       0.03300
      5 N5          3.6335    3.6963   26.5548 N.ar   1 LIG      -0.07600
      6 N6          4.3280    3.9947   25.4582 N.ar   1 LIG      -0.07300
      7 C7          5.6078    4.3308   25.7238 C.ar   1 LIG       0.15000
      8 S8          5.9469    4.2727   27.3714 S.2    1 LIG      -0.25600
      9 N9          6.5484    4.6902   24.7159 N.pl3  1 LIG      -0.65900
     10 H10         5.1977    1.3534   28.7422 H      1 LIG       0.09000
     11 H11         3.9544    0.2597   29.4302 H      1 LIG       0.09000
     12 H12         4.7105    1.4852   30.4986 H      1 LIG       0.09000
     13 H13         4.5671    3.7302   29.8399 H      1 LIG       0.09000
     14 H14         2.9621    4.2050   29.2296 H      1 LIG       0.09000
     15 H15         6.2642    4.7038   23.7115 H      1 LIG       0.35500
     16 H16         7.5278    4.9421   24.9746 H      1 LIG       0.35500
@<TRIPOS>BOND
      1       1       2 1
      2       2       3 1
      3       3       4 1
      4       4       5 ar
      5       5       6 ar
      6       6       7 ar
      7       7       8 ar
      8       4       8 ar
      9       7       9 1
     10       1      10 1
     11       1      11 1
     12       1      12 1
     13       3      13 1
     14       3      14 1
     15       9      15 1
     16       9      16 1
@<TRIPOS>ALT_TYPE
CGenFF_4.0_ALT_TYPE_SET
CGenFF_4.0 1 CG331 2 OG301 3 CG321 4 CG2R53 5 NG2R50 6 NG2R50 7 CG2R53 8 SG2R50 9 NG321 10 HGA3 11 HGA3 12 HGA3 13 HGA2 14 HGA2 15 HGPAM2 16 HGPAM2
@<TRIPOS>MOLECULE
ZINC01076074$3
 16 16 0 0 0
****
USER_CHARGES
INVALID_CHARGES
Pose:   1 Cluster:   1 Fr_nu:   2657 TotEn:   -10.05
@<TRIPOS>ATOM
      1 C1          3.5488    2.3936   29.2699 C.3    1 LIG      -0.10000
      2 O2          3.8135    2.9683   28.0102 O.3    1 LIG      -0.33500
      3 C3          5.0414    3.6636   28.0629 C.3    1 LIG       0.15600
      4 C4          5.3353    4.2788   26.7326 C.ar   1 LIG       0.03300
      5 N5          4.5296    4.1729   25.6501 N.ar   1 LIG      -0.07600
      6 N6          5.0019    4.8056   24.5775 N.ar   1 LIG      -0.07300
      7 C7          6.1839    5.4150   24.8070 C.ar   1 LIG       0.15000
      8 S8          6.7111    5.1922   26.3895 S.2    1 LIG      -0.25600
      9 N9          6.8889    6.1558   23.8151 N.pl3  1 LIG      -0.65900
     10 H10         3.4513    3.1743   30.0570 H      1 LIG       0.09000
     11 H11         4.3332    1.6553   29.5492 H      1 LIG       0.09000
     12 H12         2.5827    1.8512   29.2149 H      1 LIG       0.09000
     13 H13         4.9990    4.4824   28.8162 H      1 LIG       0.09000
     14 H14         5.8768    2.9704   28.3109 H      1 LIG       0.09000
     15 H15         7.8009    6.6087   24.0445 H      1 LIG       0.35500
     16 H16         6.4977    6.2508   22.8519 H      1 LIG       0.35500
@<TRIPOS>BOND
      1       1       2 1
      2       2       3 1
      3       3       4 1
      4       4       5 ar
      5       5       6 ar
      6       6       7 ar
      7       7       8 ar
      8       4       8 ar
      9       7       9 1
     10       1      10 1
     11       1      11 1
     12       1      12 1
     13       3      13 1
     14       3      14 1
     15       9      15 1
     16       9      16 1
@<TRIPOS>ALT_TYPE
CGenFF_4.0_ALT_TYPE_SET
CGenFF_4.0 1 CG331 2 OG301 3 CG321 4 CG2R53 5 NG2R50 6 NG2R50 7 CG2R53 8 SG2R50 9 NG321 10 HGA3 11 HGA3 12 HGA3 13 HGA2 14 HGA2 15 HGPAM2 16 HGPAM2
@<TRIPOS>MOLECULE
ZINC01076074$4
 16 16 0 0 0
****
USER_CHARGES
INVALID_CHARGES
Pose:   1 Cluster:   1 Fr_nu:  18876 TotEn:   -10.80
@<TRIPOS>ATOM
      1 C1          4.6593    6.3402   32.5219 C.3    1 LIG      -0.10000
      2 O2          4.4478    6.0481   31.1590 O.3    1 LIG      -0.33500
      3 C3          5.1505    4.8728   30.8190 C.3    1 LIG       0.15600
      4 C4          4.8998    4.5551   29.3827 C.ar   1 LIG       0.03300
      5 N5          5.8728    4.5047   28.4445 N.ar   1 LIG      -0.07600
      6 N6          5.4183    4.1967   27.2311 N.ar   1 LIG      -0.07300
      7 C7          4.0831    4.0008   27.2056 C.ar   1 LIG       0.15000
      8 S8          3.3863    4.2050   28.7240 S.2    1 LIG      -0.25600
      9 N9          3.3639    3.6607   26.0238 N.pl3  1 LIG      -0.65900
     10 H10         5.7364    6.5241   32.7328 H      1 LIG       0.09000
     11 H11         4.1054    7.2674   32.7746 H      1 LIG       0.09000
     12 H12         4.2685    5.5272   33.1736 H      1 LIG       0.09000
     13 H13         4.8014    4.0080   31.4277 H      1 LIG       0.09000
     14 H14         6.2456    5.0116   30.9695 H      1 LIG       0.09000
     15 H15         2.3302    3.5196   26.0581 H      1 LIG       0.35500
     16 H16         3.8662    3.5505   25.1153 H      1 LIG       0.35500
@<TRIPOS>BOND
      1       1       2 1
      2       2       3 1
      3       3       4 1
      4       4       5 ar
      5       5       6 ar
      6       6       7 ar
      7       7       8 ar
      8       4       8 ar
      9       7       9 1
     10       1      10 1
     11       1      11 1
     12       1      12 1
     13       3      13 1
     14       3      14 1
     15       9      15 1
     16       9      16 1
@<TRIPOS>ALT_TYPE
CGenFF_4.0_ALT_TYPE_SET
CGenFF_4.0 1 CG331 2 OG301 3 CG321 4 CG2R53 5 NG2R50 6 NG2R50 7 CG2R53 8 SG2R50 9 NG321 10 HGA3 11 HGA3 12 HGA3 13 HGA2 14 HGA2 15 HGPAM2 16 HGPAM2
@<TRIPOS>MOLECULE
ZINC01076074$5
 16 16 0 0 0
****
USER_CHARGES
INVALID_CHARGES
Pose:   1 Cluster:   1 Fr_nu:  19319 TotEn:   -10.53
@<TRIPOS>ATOM
      1 C1          4.3963    5.9700   32.5950 C.3    1 LIG      -0.10000
      2 O2          4.1683    5.7695   31.2182 O.3    1 LIG      -0.33500
      3 C3          4.7916    4.5708   30.8116 C.3    1 LIG       0.15600
      4 C4          4.5294    4.3569   29.3584 C.ar   1 LIG       0.03300
      5 N5          3.2899    4.2050   28.8389 N.ar   1 LIG      -0.07600
      6 N6          3.2905    4.0230   27.5196 N.ar   1 LIG      -0.07300
      7 C7          4.5319    4.0295   26.9901 C.ar   1 LIG       0.15000
      8 S8          5.7164    4.2668   28.1621 S.2    1 LIG      -0.25600
      9 N9          4.7916    3.8542   25.6003 N.pl3  1 LIG      -0.65900
     10 H10         3.9025    6.9151   32.9009 H      1 LIG       0.09000
     11 H11         3.9536    5.1481   33.2009 H      1 LIG       0.09000
     12 H12         5.4828    6.0726   32.8132 H      1 LIG       0.09000
     13 H13         4.3787    3.6983   31.3668 H      1 LIG       0.09000
     14 H14         5.8922    4.6240   30.9746 H      1 LIG       0.09000
     15 H15         5.7717    3.8673   25.2415 H      1 LIG       0.35500
     16 H16         4.0030    3.7114   24.9314 H      1 LIG       0.35500
@<TRIPOS>BOND
      1       1       2 1
      2       2       3 1
      3       3       4 1
      4       4       5 ar
      5       5       6 ar
      6       6       7 ar
      7       7       8 ar
      8       4       8 ar
      9       7       9 1
     10       1      10 1
     11       1      11 1
     12       1      12 1
     13       3      13 1
     14       3      14 1
     15       9      15 1
     16       9      16 1
@<TRIPOS>ALT_TYPE
CGenFF_4.0_ALT_TYPE_SET
CGenFF_4.0 1 CG331 2 OG301 3 CG321 4 CG2R53 5 NG2R50 6 NG2R50 7 CG2R53 8 SG2R50 9 NG321 10 HGA3 11 HGA3 12 HGA3 13 HGA2 14 HGA2 15 HGPAM2 16 HGPAM2
@<TRIPOS>MOLECULE
ZINC01076074$6
 16 16 0 0 0
****
USER_CHARGES
INVALID_CHARGES
Pose:   1 Cluster:   1 Fr_nu:  15723 TotEn:    -9.50
@<TRIPOS>ATOM
      1 C1          4.2367    5.8023   33.5390 C.3    1 LIG      -0.10000
      2 O2          4.1279    5.3569   32.2059 O.3    1 LIG      -0.33500
      3 C3          5.3666    5.5336   31.5514 C.3    1 LIG       0.15600
      4 C4          5.2719    5.0663   30.1331 C.ar   1 LIG       0.03300
      5 N5          6.3134    5.1186   29.2715 N.ar   1 LIG      -0.07600
      6 N6          6.0212    4.6541   28.0579 N.ar   1 LIG      -0.07300
      7 C7          4.7444    4.2306   27.9516 C.ar   1 LIG       0.15000
      8 S8          3.8975    4.4172   29.3932 S.2    1 LIG      -0.25600
      9 N9          4.1948    3.6919   26.7528 N.pl3  1 LIG      -0.65900
     10 H10         4.9930    5.2106   34.1014 H      1 LIG       0.09000
     11 H11         4.4801    6.8873   33.5831 H      1 LIG       0.09000
     12 H12         3.2579    5.6579   34.0407 H      1 LIG       0.09000
     13 H13         5.6545    6.6092   31.5373 H      1 LIG       0.09000
     14 H14         6.1649    4.9410   32.0529 H      1 LIG       0.09000
     15 H15         4.7838    3.6071   25.8952 H      1 LIG       0.35500
     16 H16         3.1994    3.3784   26.7236 H      1 LIG       0.35500
@<TRIPOS>BOND
      1       1       2 1
      2       2       3 1
      3       3       4 1
      4       4       5 ar
      5       5       6 ar
      6       6       7 ar
      7       7       8 ar
      8       4       8 ar
      9       7       9 1
     10       1      10 1
     11       1      11 1
     12       1      12 1
     13       3      13 1
     14       3      14 1
     15       9      15 1
     16       9      16 1
@<TRIPOS>ALT_TYPE
CGenFF_4.0_ALT_TYPE_SET
CGenFF_4.0 1 CG331 2 OG301 3 CG321 4 CG2R53 5 NG2R50 6 NG2R50 7 CG2R53 8 SG2R50 9 NG321 10 HGA3 11 HGA3 12 HGA3 13 HGA2 14 HGA2 15 HGPAM2 16 HGPAM2
@<TRIPOS>MOLECULE
ZINC01501734
 36 38 0 0 0
****
USER_CHARGES
INVALID_CHARGES
Pose:   1 Cluster:   1 Fr_nu:   2644 TotEn:   -11.25
@<TRIPOS>ATOM
      1 C1         -9.5629    9.9542   24.2709 C.3    1 LIG       0.14800
      2 N2         -8.8241   11.2180   24.0777 N.4    1 LIG      -0.41000
      3 C3         -8.3602   11.3688   22.6689 C.3    1 LIG       0.15900
      4 C4         -9.2155   12.3360   21.8255 C.3    1 LIG      -0.11600
      5 N5        -10.6050   12.3366   22.2895 N.am   1 LIG      -0.10100
      6 C6        -10.8714   12.6086   23.7076 C.3    1 LIG      -0.11600
      7 C7         -9.6068   12.3819   24.5540 C.3    1 LIG       0.15900
      8 C8        -11.6702   11.9214   21.4124 C.2    1 LIG       0.37400
      9 O9        -11.4489   11.0351   20.5426 O.2    1 LIG      -0.44900
     10 C10       -13.0292   12.4931   21.5233 C.ar   1 LIG      -0.09300
     11 C11       -13.2103   13.8683   21.8257 C.ar   1 LIG      -0.18800
     12 C12       -14.5008   14.4191   21.9225 C.ar   1 LIG      -0.24300
     13 C13       -15.5855   13.5761   21.7018 C.ar   1 LIG       0.09000
     14 C14       -16.9394   13.8303   21.7244 C.ar   1 LIG      -0.25800
     15 C15       -17.5421   12.6134   21.4214 C.ar   1 LIG      -0.11700
     16 N16       -16.6107   11.6532   21.2201 N.ar   1 LIG      -0.49700
     17 C17       -15.4217   12.2531   21.3936 C.ar   1 LIG       0.26500
     18 C18       -14.1581   11.6750   21.2891 C.ar   1 LIG      -0.25200
     19 H19       -10.4185    9.8730   23.5659 H      1 LIG       0.09000
     20 H20        -9.9449    9.8753   25.3124 H      1 LIG       0.09000
     21 H21        -8.8887    9.0863   24.0993 H      1 LIG       0.09000
     22 H22        -7.9728   11.1575   24.6864 H      1 LIG       0.32000
     23 H23        -7.3131   11.7472   22.6604 H      1 LIG       0.09000
     24 H24        -8.3248   10.3836   22.1501 H      1 LIG       0.09000
     25 H25        -9.1430   12.0636   20.7501 H      1 LIG       0.09000
     26 H26        -8.8100   13.3664   21.9263 H      1 LIG       0.09000
     27 H27       -11.2170   13.6548   23.8377 H      1 LIG       0.09000
     28 H28       -11.6728   11.9306   24.0751 H      1 LIG       0.09000
     29 H29        -8.9720   13.2958   24.5060 H      1 LIG       0.09000
     30 H30        -9.8922   12.2516   25.6219 H      1 LIG       0.09000
     31 H31       -12.3549   14.5172   21.9614 H      1 LIG       0.19600
     32 H32       -14.6434   15.4673   22.1522 H      1 LIG       0.20100
     33 H33       -17.4300   14.7722   21.9311 H      1 LIG       0.18300
     34 H34       -18.6083   12.4434   21.3516 H      1 LIG       0.19900
     35 H35       -16.7848   10.6522   20.9785 H      1 LIG       0.36100
     36 H36       -14.0544   10.6244   21.0467 H      1 LIG       0.19500
@<TRIPOS>BOND
      1       1       2 1
      2       2       3 1
      3       3       4 1
      4       4       5 1
      5       5       6 1
      6       6       7 1
      7       2       7 1
      8       5       8 am
      9       8       9 2
     10       8      10 1
     11      10      11 ar
     12      11      12 ar
     13      12      13 ar
     14      13      14 ar
     15      14      15 ar
     16      15      16 ar
     17      16      17 ar
     18      13      17 ar
     19      17      18 ar
     20      10      18 ar
     21       1      19 1
     22       1      20 1
     23       1      21 1
     24       2      22 1
     25       3      23 1
     26       3      24 1
     27       4      25 1
     28       4      26 1
     29       6      27 1
     30       6      28 1
     31       7      29 1
     32       7      30 1
     33      11      31 1
     34      12      32 1
     35      14      33 1
     36      15      34 1
     37      16      35 1
     38      18      36 1
@<TRIPOS>ALT_TYPE
CGenFF_4.0_ALT_TYPE_SET
CGenFF_4.0 1 CG334 2 NG3P1 3 CG324 4 CG321 5 NG2S0 6 CG321 7 CG324 8 CG2O1 9 OG2D1 10 CG2R61 11 CG2R61 12 CG2R61 13 CG2RC0 14 CG2R51 15 CG2R51 16 NG2R51 17 CG2RC0 18 CG2R61 19 HGA3 20 HGA3 21 HGA3 22 HGP2 23 HGA2 24 HGA2 25 HGA2 26 HGA2 27 HGA2 28 HGA2 29 HGA2 30 HGA2 31 HGR61 32 HGR61 33 HGR51 34 HGR52 35 HGP1 36 HGR61
@<TRIPOS>MOLECULE
ZINC01501734$2
 36 38 0 0 0
****
USER_CHARGES
INVALID_CHARGES
Pose:   1 Cluster:   1 Fr_nu:   2071 TotEn:   -11.55
@<TRIPOS>ATOM
      1 C1         -0.4951    7.9363   41.8693 C.3    1 LIG       0.14800
      2 N2         -0.3603    6.9651   40.7704 N.4    1 LIG      -0.41000
      3 C3         -1.6662    6.3489   40.4667 C.3    1 LIG       0.15900
      4 C4         -1.4740    5.1650   39.5116 C.3    1 LIG      -0.11600
      5 N5         -0.4336    5.4544   38.5156 N.am   1 LIG      -0.10100
      6 C6         -0.0390    6.8438   38.2593 C.3    1 LIG      -0.11600
      7 C7          0.2197    7.6196   39.5716 C.3    1 LIG       0.15900
      8 C8         -0.0877    4.4406   37.5573 C.2    1 LIG       0.37400
      9 O9         -0.1717    4.6995   36.3256 O.2    1 LIG      -0.44900
     10 C10         0.3778    3.1046   37.9908 C.ar   1 LIG      -0.09300
     11 C11         1.0403    2.9431   39.2372 C.ar   1 LIG      -0.18800
     12 C12         1.4979    1.6792   39.6504 C.ar   1 LIG      -0.24300
     13 C13         1.2888    0.6010   38.7963 C.ar   1 LIG       0.09000
     14 C14         1.6244   -0.7285   38.9300 C.ar   1 LIG      -0.25800
     15 C15         1.1718   -1.3360   37.7631 C.ar   1 LIG      -0.11700
     16 N16         0.5859   -0.4305   36.9464 N.ar   1 LIG      -0.49700
     17 C17         0.6640    0.7468   37.5879 C.ar   1 LIG       0.26500
     18 C18         0.1981    1.9839   37.1469 C.ar   1 LIG      -0.25200
     19 H19         0.4850    8.4166   42.0842 H      1 LIG       0.09000
     20 H20        -0.8277    7.4253   42.7996 H      1 LIG       0.09000
     21 H21        -1.2342    8.7287   41.6154 H      1 LIG       0.09000
     22 H22         0.2990    6.2166   41.0953 H      1 LIG       0.32000
     23 H23        -2.1536    5.9760   41.3960 H      1 LIG       0.09000
     24 H24        -2.3489    7.0968   40.0015 H      1 LIG       0.09000
     25 H25        -1.1841    4.2765   40.1104 H      1 LIG       0.09000
     26 H26        -2.4332    4.9371   38.9984 H      1 LIG       0.09000
     27 H27        -0.8532    7.3426   37.6893 H      1 LIG       0.09000
     28 H28         0.8791    6.8765   37.6317 H      1 LIG       0.09000
     29 H29         1.3191    7.7258   39.7133 H      1 LIG       0.09000
     30 H30        -0.1880    8.6490   39.4445 H      1 LIG       0.09000
     31 H31         1.2154    3.7961   39.8808 H      1 LIG       0.19600
     32 H32         2.0024    1.5521   40.5997 H      1 LIG       0.20100
     33 H33         2.1315   -1.2000   39.7614 H      1 LIG       0.18300
     34 H34         1.2687   -2.3874   37.5267 H      1 LIG       0.19900
     35 H35         0.1619   -0.6136   36.0099 H      1 LIG       0.36100
     36 H36        -0.2952    2.0711   36.1867 H      1 LIG       0.19500
@<TRIPOS>BOND
      1       1       2 1
      2       2       3 1
      3       3       4 1
      4       4       5 1
      5       5       6 1
      6       6       7 1
      7       2       7 1
      8       5       8 am
      9       8       9 2
     10       8      10 1
     11      10      11 ar
     12      11      12 ar
     13      12      13 ar
     14      13      14 ar
     15      14      15 ar
     16      15      16 ar
     17      16      17 ar
     18      13      17 ar
     19      17      18 ar
     20      10      18 ar
     21       1      19 1
     22       1      20 1
     23       1      21 1
     24       2      22 1
     25       3      23 1
     26       3      24 1
     27       4      25 1
     28       4      26 1
     29       6      27 1
     30       6      28 1
     31       7      29 1
     32       7      30 1
     33      11      31 1
     34      12      32 1
     35      14      33 1
     36      15      34 1
     37      16      35 1
     38      18      36 1
@<TRIPOS>ALT_TYPE
CGenFF_4.0_ALT_TYPE_SET
CGenFF_4.0 1 CG334 2 NG3P1 3 CG324 4 CG321 5 NG2S0 6 CG321 7 CG324 8 CG2O1 9 OG2D1 10 CG2R61 11 CG2R61 12 CG2R61 13 CG2RC0 14 CG2R51 15 CG2R51 16 NG2R51 17 CG2RC0 18 CG2R61 19 HGA3 20 HGA3 21 HGA3 22 HGP2 23 HGA2 24 HGA2 25 HGA2 26 HGA2 27 HGA2 28 HGA2 29 HGA2 30 HGA2 31 HGR61 32 HGR61 33 HGR51 34 HGR52 35 HGP1 36 HGR61
@<TRIPOS>MOLECULE
ZINC01501734$3
 36 38 0 0 0
****
USER_CHARGES
INVALID_CHARGES
Pose:   1 Cluster:   1 Fr_nu:   1641 TotEn:   -14.76
@<TRIPOS>ATOM
      1 C1          7.0222   10.3745   22.8605 C.3    1 LIG       0.14800
      2 N2          6.8165    9.0291   23.4231 N.4    1 LIG      -0.41000
      3 C3          7.1683    7.9892   22.4209 C.3    1 LIG       0.15900
      4 C4          7.5166    6.6244   23.0532 C.3    1 LIG      -0.11600
      5 N5          6.9340    6.5026   24.3937 N.am   1 LIG      -0.10100
      6 C6          7.1920    7.5649   25.3762 C.3    1 LIG      -0.11600
      7 C7          7.5897    8.8712   24.6723 C.3    1 LIG       0.15900
      8 C8          6.0084    5.4399   24.6942 C.2    1 LIG       0.37400
      9 O9          5.2284    5.0230   23.7949 O.2    1 LIG      -0.44900
     10 C10         5.9350    4.8380   26.0429 C.ar   1 LIG      -0.09300
     11 C11         7.1127    4.6476   26.8127 C.ar   1 LIG      -0.18800
     12 C12         7.0495    4.0663   28.0918 C.ar   1 LIG      -0.24300
     13 C13         5.8013    3.6770   28.5678 C.ar   1 LIG       0.09000
     14 C14         5.4385    3.0880   29.7593 C.ar   1 LIG      -0.25800
     15 C15         4.0594    2.9224   29.6770 C.ar   1 LIG      -0.11700
     16 N16         3.5901    3.3837   28.4950 N.ar   1 LIG      -0.49700
     17 C17         4.6622    3.8409   27.8277 C.ar   1 LIG       0.26500
     18 C18         4.6886    4.4125   26.5571 C.ar   1 LIG      -0.25200
     19 H19         6.4523   10.4889   21.9120 H      1 LIG       0.09000
     20 H20         8.0999   10.5620   22.6556 H      1 LIG       0.09000
     21 H21         6.6545   11.1508   23.5671 H      1 LIG       0.09000
     22 H22         5.7962    8.9409   23.6500 H      1 LIG       0.32000
     23 H23         8.0373    8.3076   21.8002 H      1 LIG       0.09000
     24 H24         6.3100    7.8500   21.7254 H      1 LIG       0.09000
     25 H25         8.6214    6.5378   23.1448 H      1 LIG       0.09000
     26 H26         7.1825    5.8012   22.3848 H      1 LIG       0.09000
     27 H27         6.2688    7.7536   25.9676 H      1 LIG       0.09000
     28 H28         7.9999    7.2577   26.0718 H      1 LIG       0.09000
     29 H29         8.6817    8.8577   24.4509 H      1 LIG       0.09000
     30 H30         7.3952    9.7193   25.3672 H      1 LIG       0.09000
     31 H31         8.0796    4.9250   26.4137 H      1 LIG       0.19600
     32 H32         7.9450    3.9185   28.6817 H      1 LIG       0.20100
     33 H33         6.0848    2.8116   30.5819 H      1 LIG       0.18300
     34 H34         3.4348    2.4850   30.4446 H      1 LIG       0.19900
     35 H35         2.5971    3.3820   28.1716 H      1 LIG       0.36100
     36 H36         3.7727    4.5340   25.9920 H      1 LIG       0.19500
@<TRIPOS>BOND
      1       1       2 1
      2       2       3 1
      3       3       4 1
      4       4       5 1
      5       5       6 1
      6       6       7 1
      7       2       7 1
      8       5       8 am
      9       8       9 2
     10       8      10 1
     11      10      11 ar
     12      11      12 ar
     13      12      13 ar
     14      13      14 ar
     15      14      15 ar
     16      15      16 ar
     17      16      17 ar
     18      13      17 ar
     19      17      18 ar
     20      10      18 ar
     21       1      19 1
     22       1      20 1
     23       1      21 1
     24       2      22 1
     25       3      23 1
     26       3      24 1
     27       4      25 1
     28       4      26 1
     29       6      27 1
     30       6      28 1
     31       7      29 1
     32       7      30 1
     33      11      31 1
     34      12      32 1
     35      14      33 1
     36      15      34 1
     37      16      35 1
     38      18      36 1
@<TRIPOS>ALT_TYPE
CGenFF_4.0_ALT_TYPE_SET
CGenFF_4.0 1 CG334 2 NG3P1 3 CG324 4 CG321 5 NG2S0 6 CG321 7 CG324 8 CG2O1 9 OG2D1 10 CG2R61 11 CG2R61 12 CG2R61 13 CG2RC0 14 CG2R51 15 CG2R51 16 NG2R51 17 CG2RC0 18 CG2R61 19 HGA3 20 HGA3 21 HGA3 22 HGP2 23 HGA2 24 HGA2 25 HGA2 26 HGA2 27 HGA2 28 HGA2 29 HGA2 30 HGA2 31 HGR61 32 HGR61 33 HGR51 34 HGR52 35 HGP1 36 HGR61
@<TRIPOS>MOLECULE
ZINC01501734$4
 36 38 0 0 0
****
USER_CHARGES
INVALID_CHARGES
Pose:   1 Cluster:   1 Fr_nu:   2213 TotEn:    -9.80
@<TRIPOS>ATOM
      1 C1          2.4865    8.1500   41.0146 C.3    1 LIG       0.14800
      2 N2          1.9431    7.1821   40.0467 N.4    1 LIG      -0.41000
      3 C3          1.2236    7.8854   38.9656 C.3    1 LIG       0.15900
      4 C4          0.4559    6.8746   38.1024 C.3    1 LIG      -0.11600
      5 N5          1.2211    5.6329   37.9459 N.am   1 LIG      -0.10100
      6 C6          2.6723    5.6532   38.1648 C.3    1 LIG      -0.11600
      7 C7          3.0289    6.3224   39.5107 C.3    1 LIG       0.15900
      8 C8          0.5991    4.5056   37.3051 C.2    1 LIG       0.37400
      9 O9         -0.1717    4.6995   36.3256 O.2    1 LIG      -0.44900
     10 C10         0.8239    3.1248   37.7913 C.ar   1 LIG      -0.09300
     11 C11         1.1847    2.8871   39.1452 C.ar   1 LIG      -0.18800
     12 C12         1.3889    1.5781   39.6167 C.ar   1 LIG      -0.24300
     13 C13         1.2170    0.5296   38.7187 C.ar   1 LIG       0.09000
     14 C14         1.3430   -0.8313   38.8929 C.ar   1 LIG      -0.25800
     15 C15         1.0459   -1.3849   37.6516 C.ar   1 LIG      -0.11700
     16 N16         0.7500   -0.4179   36.7530 N.ar   1 LIG      -0.49700
     17 C17         0.8576    0.7449   37.4163 C.ar   1 LIG       0.26500
     18 C18         0.6475    2.0282   36.9153 C.ar   1 LIG      -0.25200
     19 H19         3.0440    7.6216   41.8193 H      1 LIG       0.09000
     20 H20         1.6622    8.7195   41.4977 H      1 LIG       0.09000
     21 H21         3.1730    8.8711   40.5172 H      1 LIG       0.09000
     22 H22         1.2615    6.5751   40.5637 H      1 LIG       0.32000
     23 H23         0.4946    8.6151   39.3854 H      1 LIG       0.09000
     24 H24         1.9414    8.4508   38.3278 H      1 LIG       0.09000
     25 H25         0.2379    7.3164   37.1061 H      1 LIG       0.09000
     26 H26        -0.5088    6.6413   38.6040 H      1 LIG       0.09000
     27 H27         3.1033    4.6296   38.1320 H      1 LIG       0.09000
     28 H28         3.1416    6.2269   37.3360 H      1 LIG       0.09000
     29 H29         3.9654    6.9079   39.3623 H      1 LIG       0.09000
     30 H30         3.2621    5.5266   40.2538 H      1 LIG       0.09000
     31 H31         1.2948    3.7117   39.8377 H      1 LIG       0.19600
     32 H32         1.6647    1.3938   40.6471 H      1 LIG       0.20100
     33 H33         1.6134   -1.3579   39.7986 H      1 LIG       0.18300
     34 H34         1.0466   -2.4422   37.4214 H      1 LIG       0.19900
     35 H35         0.4910   -0.5524   35.7503 H      1 LIG       0.36100
     36 H36         0.3663    2.1701   35.8792 H      1 LIG       0.19500
@<TRIPOS>BOND
      1       1       2 1
      2       2       3 1
      3       3       4 1
      4       4       5 1
      5       5       6 1
      6       6       7 1
      7       2       7 1
      8       5       8 am
      9       8       9 2
     10       8      10 1
     11      10      11 ar
     12      11      12 ar
     13      12      13 ar
     14      13      14 ar
     15      14      15 ar
     16      15      16 ar
     17      16      17 ar
     18      13      17 ar
     19      17      18 ar
     20      10      18 ar
     21       1      19 1
     22       1      20 1
     23       1      21 1
     24       2      22 1
     25       3      23 1
     26       3      24 1
     27       4      25 1
     28       4      26 1
     29       6      27 1
     30       6      28 1
     31       7      29 1
     32       7      30 1
     33      11      31 1
     34      12      32 1
     35      14      33 1
     36      15      34 1
     37      16      35 1
     38      18      36 1
@<TRIPOS>ALT_TYPE
CGenFF_4.0_ALT_TYPE_SET
CGenFF_4.0 1 CG334 2 NG3P1 3 CG324 4 CG321 5 NG2S0 6 CG321 7 CG324 8 CG2O1 9 OG2D1 10 CG2R61 11 CG2R61 12 CG2R61 13 CG2RC0 14 CG2R51 15 CG2R51 16 NG2R51 17 CG2RC0 18 CG2R61 19 HGA3 20 HGA3 21 HGA3 22 HGP2 23 HGA2 24 HGA2 25 HGA2 26 HGA2 27 HGA2 28 HGA2 29 HGA2 30 HGA2 31 HGR61 32 HGR61 33 HGR51 34 HGR52 35 HGP1 36 HGR61
@<TRIPOS>MOLECULE
ZINC01501734$5
 36 38 0 0 0
****
USER_CHARGES
INVALID_CHARGES
Pose:   1 Cluster:   1 Fr_nu:   2658 TotEn:    -8.74
@<TRIPOS>ATOM
      1 C1         -9.4121    9.7660   24.2029 C.3    1 LIG       0.14800
      2 N2         -8.7867   11.0970   24.0724 N.4    1 LIG      -0.41000
      3 C3         -9.6571   12.1602   24.6276 C.3    1 LIG       0.15900
      4 C4        -10.9450   12.3497   23.8022 C.3    1 LIG      -0.11600
      5 N5        -10.6898   12.1137   22.3748 N.am   1 LIG      -0.10100
      6 C6         -9.3189   12.2957   21.8959 C.3    1 LIG      -0.11600
      7 C7         -8.3602   11.3688   22.6689 C.3    1 LIG       0.15900
      8 C8        -11.6459   11.3869   21.5767 C.2    1 LIG       0.37400
      9 O9        -11.2392   10.5190   20.7562 O.2    1 LIG      -0.44900
     10 C10       -13.1008   11.6264   21.7078 C.ar   1 LIG      -0.09300
     11 C11       -13.5935   12.9155   22.0431 C.ar   1 LIG      -0.18800
     12 C12       -14.9753   13.1490   22.1627 C.ar   1 LIG      -0.24300
     13 C13       -15.8371   12.0813   21.9331 C.ar   1 LIG       0.09000
     14 C14       -17.2126   12.0131   21.9736 C.ar   1 LIG      -0.25800
     15 C15       -17.5200   10.6951   21.6508 C.ar   1 LIG      -0.11700
     16 N16       -16.3938    9.9819   21.4210 N.ar   1 LIG      -0.49700
     17 C17       -15.3746   10.8388   21.5960 C.ar   1 LIG       0.26500
     18 C18       -14.0128   10.5723   21.4683 C.ar   1 LIG      -0.25200
     19 H19       -10.2850    9.6580   23.5245 H      1 LIG       0.09000
     20 H20        -9.7468    9.5891   25.2487 H      1 LIG       0.09000
     21 H21        -8.6765    8.9700   23.9527 H      1 LIG       0.09000
     22 H22        -7.9226   11.0743   24.6653 H      1 LIG       0.32000
     23 H23        -9.0947   13.1214   24.6402 H      1 LIG       0.09000
     24 H24        -9.9216   11.9380   25.6859 H      1 LIG       0.09000
     25 H25       -11.7183   11.6435   24.1771 H      1 LIG       0.09000
     26 H26       -11.3223   13.3837   23.9481 H      1 LIG       0.09000
     27 H27        -9.2403   12.1097   20.8024 H      1 LIG       0.09000
     28 H28        -9.0211   13.3537   22.0655 H      1 LIG       0.09000
     29 H29        -7.3541   11.8455   22.6704 H      1 LIG       0.09000
     30 H30        -8.2431   10.4217   22.0943 H      1 LIG       0.09000
     31 H31       -12.9123   13.7432   22.1893 H      1 LIG       0.19600
     32 H32       -15.3546   14.1303   22.4172 H      1 LIG       0.20100
     33 H33       -17.9058   12.8111   22.2047 H      1 LIG       0.18300
     34 H34       -18.5184   10.2829   21.5874 H      1 LIG       0.19900
     35 H35       -16.3337    8.9724   21.1603 H      1 LIG       0.36100
     36 H36       -13.6726    9.5786   21.2043 H      1 LIG       0.19500
@<TRIPOS>BOND
      1       1       2 1
      2       2       3 1
      3       3       4 1
      4       4       5 1
      5       5       6 1
      6       6       7 1
      7       2       7 1
      8       5       8 am
      9       8       9 2
     10       8      10 1
     11      10      11 ar
     12      11      12 ar
     13      12      13 ar
     14      13      14 ar
     15      14      15 ar
     16      15      16 ar
     17      16      17 ar
     18      13      17 ar
     19      17      18 ar
     20      10      18 ar
     21       1      19 1
     22       1      20 1
     23       1      21 1
     24       2      22 1
     25       3      23 1
     26       3      24 1
     27       4      25 1
     28       4      26 1
     29       6      27 1
     30       6      28 1
     31       7      29 1
     32       7      30 1
     33      11      31 1
     34      12      32 1
     35      14      33 1
     36      15      34 1
     37      16      35 1
     38      18      36 1
@<TRIPOS>ALT_TYPE
CGenFF_4.0_ALT_TYPE_SET
CGenFF_4.0 1 CG334 2 NG3P1 3 CG324 4 CG321 5 NG2S0 6 CG321 7 CG324 8 CG2O1 9 OG2D1 10 CG2R61 11 CG2R61 12 CG2R61 13 CG2RC0 14 CG2R51 15 CG2R51 16 NG2R51 17 CG2RC0 18 CG2R61 19 HGA3 20 HGA3 21 HGA3 22 HGP2 23 HGA2 24 HGA2 25 HGA2 26 HGA2 27 HGA2 28 HGA2 29 HGA2 30 HGA2 31 HGR61 32 HGR61 33 HGR51 34 HGR52 35 HGP1 36 HGR61
@<TRIPOS>MOLECULE
ZINC01501734$6
 36 38 0 0 0
****
USER_CHARGES
INVALID_CHARGES
Pose:   1 Cluster:   1 Fr_nu:   1360 TotEn:    -8.18
@<TRIPOS>ATOM
      1 C1        -10.3447    2.3010   34.0647 C.3    1 LIG       0.14800
      2 N2         -9.2689    2.6635   33.1266 N.4    1 LIG      -0.41000
      3 C3         -7.9992    2.9024   33.8617 C.3    1 LIG       0.15900
      4 C4         -6.7427    2.7399   32.9794 C.3    1 LIG      -0.11600
      5 N5         -7.0724    2.9070   31.5601 N.am   1 LIG      -0.10100
      6 C6         -8.1646    2.1062   30.9890 C.3    1 LIG      -0.11600
      7 C7         -9.1160    1.6192   32.0925 C.3    1 LIG       0.15900
      8 C8         -6.4387    3.9392   30.7795 C.2    1 LIG       0.37400
      9 O9         -6.1279    5.0311   31.3294 O.2    1 LIG      -0.44900
     10 C10        -6.1612    3.7573   29.3382 C.ar   1 LIG      -0.09300
     11 C11        -6.2565    4.8634   28.4530 C.ar   1 LIG      -0.18800
     12 C12        -5.9861    4.7118   27.0810 C.ar   1 LIG      -0.24300
     13 C13        -5.6135    3.4501   26.6278 C.ar   1 LIG       0.09000
     14 C14        -5.2855    3.0108   25.3638 C.ar   1 LIG      -0.25800
     15 C15        -4.9842    1.6610   25.5157 C.ar   1 LIG      -0.11700
     16 N16        -5.1176    1.2816   26.8073 N.ar   1 LIG      -0.49700
     17 C17        -5.5034    2.3812   27.4748 C.ar   1 LIG       0.26500
     18 C18        -5.7633    2.4960   28.8390 C.ar   1 LIG      -0.25200
     19 H19       -11.3180    2.2318   33.5308 H      1 LIG       0.09000
     20 H20       -10.1368    1.3229   34.5534 H      1 LIG       0.09000
     21 H21       -10.4501    3.0795   34.8525 H      1 LIG       0.09000
     22 H22        -9.5550    3.5569   32.6574 H      1 LIG       0.32000
     23 H23        -8.0098    3.9347   34.2786 H      1 LIG       0.09000
     24 H24        -7.8992    2.2067   34.7265 H      1 LIG       0.09000
     25 H25        -6.3279    1.7182   33.1224 H      1 LIG       0.09000
     26 H26        -5.9567    3.4559   33.3046 H      1 LIG       0.09000
     27 H27        -8.7470    2.7305   30.2756 H      1 LIG       0.09000
     28 H28        -7.7553    1.2328   30.4405 H      1 LIG       0.09000
     29 H29        -8.7138    0.6839   32.5453 H      1 LIG       0.09000
     30 H30       -10.0986    1.3759   31.6285 H      1 LIG       0.09000
     31 H31        -6.5508    5.8372   28.8242 H      1 LIG       0.19600
     32 H32        -6.0636    5.5509   26.4016 H      1 LIG       0.20100
     33 H33        -5.2623    3.5897   24.4500 H      1 LIG       0.18300
     34 H34        -4.6810    0.9940   24.7195 H      1 LIG       0.19900
     35 H35        -4.9528    0.3283   27.2006 H      1 LIG       0.36100
     36 H36        -5.6358    1.6421   29.4916 H      1 LIG       0.19500
@<TRIPOS>BOND
      1       1       2 1
      2       2       3 1
      3       3       4 1
      4       4       5 1
      5       5       6 1
      6       6       7 1
      7       2       7 1
      8       5       8 am
      9       8       9 2
     10       8      10 1
     11      10      11 ar
     12      11      12 ar
     13      12      13 ar
     14      13      14 ar
     15      14      15 ar
     16      15      16 ar
     17      16      17 ar
     18      13      17 ar
     19      17      18 ar
     20      10      18 ar
     21       1      19 1
     22       1      20 1
     23       1      21 1
     24       2      22 1
     25       3      23 1
     26       3      24 1
     27       4      25 1
     28       4      26 1
     29       6      27 1
     30       6      28 1
     31       7      29 1
     32       7      30 1
     33      11      31 1
     34      12      32 1
     35      14      33 1
     36      15      34 1
     37      16      35 1
     38      18      36 1
@<TRIPOS>ALT_TYPE
CGenFF_4.0_ALT_TYPE_SET
CGenFF_4.0 1 CG334 2 NG3P1 3 CG324 4 CG321 5 NG2S0 6 CG321 7 CG324 8 CG2O1 9 OG2D1 10 CG2R61 11 CG2R61 12 CG2R61 13 CG2RC0 14 CG2R51 15 CG2R51 16 NG2R51 17 CG2RC0 18 CG2R61 19 HGA3 20 HGA3 21 HGA3 22 HGP2 23 HGA2 24 HGA2 25 HGA2 26 HGA2 27 HGA2 28 HGA2 29 HGA2 30 HGA2 31 HGR61 32 HGR61 33 HGR51 34 HGR52 35 HGP1 36 HGR61
@<TRIPOS>MOLECULE
ZINC01501734$7
 36 38 0 0 0
****
USER_CHARGES
INVALID_CHARGES
Pose:   1 Cluster:   1 Fr_nu:   2081 TotEn:   -10.65
@<TRIPOS>ATOM
      1 C1          5.7133    7.4410   39.7138 C.3    1 LIG       0.14800
      2 N2          4.7438    6.5740   39.0231 N.4    1 LIG      -0.41000
      3 C3          3.4357    7.2670   38.8840 C.3    1 LIG       0.15900
      4 C4          2.5696    6.7187   37.7289 C.3    1 LIG      -0.11600
      5 N5          2.9642    5.3517   37.3796 N.am   1 LIG      -0.10100
      6 C6          4.3777    5.0603   37.1092 C.3    1 LIG      -0.11600
      7 C7          5.2806    6.1438   37.7157 C.3    1 LIG       0.15900
      8 C8          1.9576    4.3747   37.0687 C.2    1 LIG       0.37400
      9 O9          0.9917    4.6995   36.3256 O.2    1 LIG      -0.44900
     10 C10         2.0256    3.0017   37.6162 C.ar   1 LIG      -0.09300
     11 C11         2.6660    2.7538   38.8598 C.ar   1 LIG      -0.18800
     12 C12         2.7220    1.4541   39.3940 C.ar   1 LIG      -0.24300
     13 C13         2.1226    0.4279   38.6707 C.ar   1 LIG       0.09000
     14 C14         2.0179   -0.9190   38.9417 C.ar   1 LIG      -0.25800
     15 C15         1.3093   -1.4507   37.8689 C.ar   1 LIG      -0.11700
     16 N16         0.9897   -0.4841   36.9781 N.ar   1 LIG      -0.49700
     17 C17         1.4913    0.6568   37.4787 C.ar   1 LIG       0.26500
     18 C18         1.4168    1.9314   36.9204 C.ar   1 LIG      -0.25200
     19 H19         5.3039    7.7772   40.6921 H      1 LIG       0.09000
     20 H20         6.6543    6.8844   39.9188 H      1 LIG       0.09000
     21 H21         5.9567    8.3371   39.1004 H      1 LIG       0.09000
     22 H22         4.6077    5.7241   39.6225 H      1 LIG       0.32000
     23 H23         3.5765    8.3590   38.7125 H      1 LIG       0.09000
     24 H24         2.8672    7.1627   39.8357 H      1 LIG       0.09000
     25 H25         1.4954    6.7619   38.0151 H      1 LIG       0.09000
     26 H26         2.7052    7.3639   36.8333 H      1 LIG       0.09000
     27 H27         4.6559    4.0826   37.5549 H      1 LIG       0.09000
     28 H28         4.5443    4.9989   36.0123 H      1 LIG       0.09000
     29 H29         5.3416    7.0113   37.0190 H      1 LIG       0.09000
     30 H30         6.3064    5.7254   37.8280 H      1 LIG       0.09000
     31 H31         3.1080    3.5670   39.4214 H      1 LIG       0.19600
     32 H32         3.2100    1.2613   40.3409 H      1 LIG       0.20100
     33 H33         2.4019   -1.4501   39.8026 H      1 LIG       0.18300
     34 H34         1.0421   -2.4924   37.7502 H      1 LIG       0.19900
     35 H35         0.4608   -0.6045   36.0858 H      1 LIG       0.36100
     36 H36         0.9126    2.0848   35.9743 H      1 LIG       0.19500
@<TRIPOS>BOND
      1       1       2 1
      2       2       3 1
      3       3       4 1
      4       4       5 1
      5       5       6 1
      6       6       7 1
      7       2       7 1
      8       5       8 am
      9       8       9 2
     10       8      10 1
     11      10      11 ar
     12      11      12 ar
     13      12      13 ar
     14      13      14 ar
     15      14      15 ar
     16      15      16 ar
     17      16      17 ar
     18      13      17 ar
     19      17      18 ar
     20      10      18 ar
     21       1      19 1
     22       1      20 1
     23       1      21 1
     24       2      22 1
     25       3      23 1
     26       3      24 1
     27       4      25 1
     28       4      26 1
     29       6      27 1
     30       6      28 1
     31       7      29 1
     32       7      30 1
     33      11      31 1
     34      12      32 1
     35      14      33 1
     36      15      34 1
     37      16      35 1
     38      18      36 1
@<TRIPOS>ALT_TYPE
CGenFF_4.0_ALT_TYPE_SET
CGenFF_4.0 1 CG334 2 NG3P1 3 CG324 4 CG321 5 NG2S0 6 CG321 7 CG324 8 CG2O1 9 OG2D1 10 CG2R61 11 CG2R61 12 CG2R61 13 CG2RC0 14 CG2R51 15 CG2R51 16 NG2R51 17 CG2RC0 18 CG2R61 19 HGA3 20 HGA3 21 HGA3 22 HGP2 23 HGA2 24 HGA2 25 HGA2 26 HGA2 27 HGA2 28 HGA2 29 HGA2 30 HGA2 31 HGR61 32 HGR61 33 HGR51 34 HGR52 35 HGP1 36 HGR61
@<TRIPOS>MOLECULE
ZINC01501734$8
 36 38 0 0 0
****
USER_CHARGES
INVALID_CHARGES
Pose:   1 Cluster:   1 Fr_nu:   2560 TotEn:   -11.24
@<TRIPOS>ATOM
      1 C1         -8.7541    5.2658   28.4078 C.3    1 LIG       0.14800
      2 N2         -8.1534    4.3823   27.3945 N.4    1 LIG      -0.41000
      3 C3         -8.3768    2.9656   27.7606 C.3    1 LIG       0.15900
      4 C4         -7.7755    2.0243   26.7097 C.3    1 LIG      -0.11600
      5 N5         -6.3709    2.3788   26.4862 N.am   1 LIG      -0.10100
      6 C6         -6.0693    3.7811   26.1912 C.3    1 LIG      -0.11600
      7 C7         -6.7088    4.6748   27.2594 C.3    1 LIG       0.15900
      8 C8         -5.3133    1.4315   26.7264 C.2    1 LIG       0.37400
      9 O9         -4.2826    1.8025   27.3519 O.2    1 LIG      -0.44900
     10 C10        -5.4068    0.0316   26.2504 C.ar   1 LIG      -0.09300
     11 C11        -4.6772   -0.9940   26.9093 C.ar   1 LIG      -0.18800
     12 C12        -4.7459   -2.3266   26.4645 C.ar   1 LIG      -0.24300
     13 C13        -5.5423   -2.6020   25.3577 C.ar   1 LIG       0.09000
     14 C14        -5.7937   -3.7894   24.7056 C.ar   1 LIG      -0.25800
     15 C15        -6.6545   -3.4563   23.6645 C.ar   1 LIG      -0.11700
     16 N16        -6.9236   -2.1305   23.6697 N.ar   1 LIG      -0.49700
     17 C17        -6.2402   -1.6214   24.7076 C.ar   1 LIG       0.26500
     18 C18        -6.1948   -0.2914   25.1203 C.ar   1 LIG      -0.25200
     19 H19        -9.8471    5.0761   28.4891 H      1 LIG       0.09000
     20 H20        -8.6225    6.3321   28.1200 H      1 LIG       0.09000
     21 H21        -8.2890    5.1057   29.4061 H      1 LIG       0.09000
     22 H22        -8.6285    4.5774   26.4802 H      1 LIG       0.32000
     23 H23        -7.9165    2.7413   28.7503 H      1 LIG       0.09000
     24 H24        -9.4675    2.7556   27.8348 H      1 LIG       0.09000
     25 H25        -8.3365    2.1245   25.7554 H      1 LIG       0.09000
     26 H26        -7.8753    0.9759   27.0655 H      1 LIG       0.09000
     27 H27        -4.9729    3.9623   26.1579 H      1 LIG       0.09000
     28 H28        -6.4857    4.0404   25.1937 H      1 LIG       0.09000
     29 H29        -6.5580    5.7371   26.9629 H      1 LIG       0.09000
     30 H30        -6.1842    4.5108   28.2287 H      1 LIG       0.09000
     31 H31        -4.0643   -0.7635   27.7718 H      1 LIG       0.19600
     32 H32        -4.1954   -3.1112   26.9677 H      1 LIG       0.20100
     33 H33        -5.4045   -4.7696   24.9473 H      1 LIG       0.18300
     34 H34        -7.0601   -4.1513   22.9412 H      1 LIG       0.19900
     35 H35        -7.5370   -1.6132   23.0014 H      1 LIG       0.36100
     36 H36        -6.7400    0.4661   24.5721 H      1 LIG       0.19500
@<TRIPOS>BOND
      1       1       2 1
      2       2       3 1
      3       3       4 1
      4       4       5 1
      5       5       6 1
      6       6       7 1
      7       2       7 1
      8       5       8 am
      9       8       9 2
     10       8      10 1
     11      10      11 ar
     12      11      12 ar
     13      12      13 ar
     14      13      14 ar
     15      14      15 ar
     16      15      16 ar
     17      16      17 ar
     18      13      17 ar
     19      17      18 ar
     20      10      18 ar
     21       1      19 1
     22       1      20 1
     23       1      21 1
     24       2      22 1
     25       3      23 1
     26       3      24 1
     27       4      25 1
     28       4      26 1
     29       6      27 1
     30       6      28 1
     31       7      29 1
     32       7      30 1
     33      11      31 1
     34      12      32 1
     35      14      33 1
     36      15      34 1
     37      16      35 1
     38      18      36 1
@<TRIPOS>ALT_TYPE
CGenFF_4.0_ALT_TYPE_SET
CGenFF_4.0 1 CG334 2 NG3P1 3 CG324 4 CG321 5 NG2S0 6 CG321 7 CG324 8 CG2O1 9 OG2D1 10 CG2R61 11 CG2R61 12 CG2R61 13 CG2RC0 14 CG2R51 15 CG2R51 16 NG2R51 17 CG2RC0 18 CG2R61 19 HGA3 20 HGA3 21 HGA3 22 HGP2 23 HGA2 24 HGA2 25 HGA2 26 HGA2 27 HGA2 28 HGA2 29 HGA2 30 HGA2 31 HGR61 32 HGR61 33 HGR51 34 HGR52 35 HGP1 36 HGR61
@<TRIPOS>MOLECULE
ZINC01501734$9
 36 38 0 0 0
****
USER_CHARGES
INVALID_CHARGES
Pose:   1 Cluster:   1 Fr_nu:   2326 TotEn:    -8.89
@<TRIPOS>ATOM
      1 C1         -3.6977    6.0061   38.4409 C.3    1 LIG       0.14800
      2 N2         -2.7303    6.7647   39.2588 N.4    1 LIG      -0.41000
      3 C3         -1.7046    7.4345   38.4090 C.3    1 LIG       0.15900
      4 C4         -0.3412    6.7145   38.3843 C.3    1 LIG      -0.11600
      5 N5         -0.5151    5.2710   38.5646 N.am   1 LIG      -0.10100
      6 C6         -1.2621    4.7951   39.7356 C.3    1 LIG      -0.11600
      7 C7         -2.1360    5.9187   40.3195 C.3    1 LIG       0.15900
      8 C8         -0.1042    4.3496   37.5357 C.2    1 LIG       0.37400
      9 O9         -0.1717    4.6995   36.3256 O.2    1 LIG      -0.44900
     10 C10         0.3741    2.9894   37.8628 C.ar   1 LIG      -0.09300
     11 C11         0.0659    1.9037   37.0016 C.ar   1 LIG      -0.18800
     12 C12         0.5211    0.6046   37.2910 C.ar   1 LIG      -0.24300
     13 C13         1.2884    0.4256   38.4380 C.ar   1 LIG       0.09000
     14 C14         1.8685   -0.7089   38.9620 C.ar   1 LIG      -0.25800
     15 C15         2.5251   -0.2824   40.1122 C.ar   1 LIG      -0.11700
     16 N16         2.3617    1.0484   40.2928 N.ar   1 LIG      -0.49700
     17 C17         1.6043    1.4679   39.2662 C.ar   1 LIG       0.26500
     18 C18         1.1707    2.7668   39.0094 C.ar   1 LIG      -0.25200
     19 H19        -3.1850    5.2659   37.7890 H      1 LIG       0.09000
     20 H20        -4.4284    5.4723   39.0874 H      1 LIG       0.09000
     21 H21        -4.2759    6.6989   37.7906 H      1 LIG       0.09000
     22 H22        -3.2789    7.5152   39.7433 H      1 LIG       0.32000
     23 H23        -1.5337    8.4707   38.7792 H      1 LIG       0.09000
     24 H24        -2.0637    7.5485   37.3606 H      1 LIG       0.09000
     25 H25         0.1912    6.9474   37.4365 H      1 LIG       0.09000
     26 H26         0.2915    7.0992   39.2137 H      1 LIG       0.09000
     27 H27        -0.5607    4.4336   40.5154 H      1 LIG       0.09000
     28 H28        -1.9200    3.9478   39.4416 H      1 LIG       0.09000
     29 H29        -1.5097    6.5528   40.9872 H      1 LIG       0.09000
     30 H30        -2.9320    5.4764   40.9598 H      1 LIG       0.09000
     31 H31        -0.5352    2.0626   36.1150 H      1 LIG       0.19600
     32 H32         0.2831   -0.2272   36.6406 H      1 LIG       0.20100
     33 H33         1.8274   -1.7143   38.5644 H      1 LIG       0.18300
     34 H34         3.0943   -0.9160   40.7792 H      1 LIG       0.19900
     35 H35         2.7476    1.6270   41.0718 H      1 LIG       0.36100
     36 H36         1.4632    3.5785   39.6629 H      1 LIG       0.19500
@<TRIPOS>BOND
      1       1       2 1
      2       2       3 1
      3       3       4 1
      4       4       5 1
      5       5       6 1
      6       6       7 1
      7       2       7 1
      8       5       8 am
      9       8       9 2
     10       8      10 1
     11      10      11 ar
     12      11      12 ar
     13      12      13 ar
     14      13      14 ar
     15      14      15 ar
     16      15      16 ar
     17      16      17 ar
     18      13      17 ar
     19      17      18 ar
     20      10      18 ar
     21       1      19 1
     22       1      20 1
     23       1      21 1
     24       2      22 1
     25       3      23 1
     26       3      24 1
     27       4      25 1
     28       4      26 1
     29       6      27 1
     30       6      28 1
     31       7      29 1
     32       7      30 1
     33      11      31 1
     34      12      32 1
     35      14      33 1
     36      15      34 1
     37      16      35 1
     38      18      36 1
@<TRIPOS>ALT_TYPE
CGenFF_4.0_ALT_TYPE_SET
CGenFF_4.0 1 CG334 2 NG3P1 3 CG324 4 CG321 5 NG2S0 6 CG321 7 CG324 8 CG2O1 9 OG2D1 10 CG2R61 11 CG2R61 12 CG2R61 13 CG2RC0 14 CG2R51 15 CG2R51 16 NG2R51 17 CG2RC0 18 CG2R61 19 HGA3 20 HGA3 21 HGA3 22 HGP2 23 HGA2 24 HGA2 25 HGA2 26 HGA2 27 HGA2 28 HGA2 29 HGA2 30 HGA2 31 HGR61 32 HGR61 33 HGR51 34 HGR52 35 HGP1 36 HGR61
@<TRIPOS>MOLECULE
ZINC01501734$10
 36 38 0 0 0
****
USER_CHARGES
INVALID_CHARGES
Pose:   1 Cluster:   1 Fr_nu:   1981 TotEn:    -8.32
@<TRIPOS>ATOM
      1 C1        -14.0943   18.2384   27.1474 C.3    1 LIG       0.14800
      2 N2        -13.7001   17.2348   26.1446 N.4    1 LIG      -0.41000
      3 C3        -12.2403   17.2859   25.9121 C.3    1 LIG       0.15900
      4 C4        -11.7909   16.1153   25.0166 C.3    1 LIG      -0.11600
      5 N5        -12.8832   15.6990   24.1255 N.am   1 LIG      -0.10100
      6 C6        -13.8107   16.7384   23.6729 C.3    1 LIG      -0.11600
      7 C7        -14.4615   17.4386   24.8847 C.3    1 LIG       0.15900
      8 C8        -13.2469   14.3083   24.0201 C.2    1 LIG       0.37400
      9 O9        -14.4648   13.9811   24.0579 O.2    1 LIG      -0.44900
     10 C10       -12.2195   13.2517   23.8711 C.ar   1 LIG      -0.09300
     11 C11       -12.4890   11.9303   24.3179 C.ar   1 LIG      -0.18800
     12 C12       -11.5283   10.9125   24.1780 C.ar   1 LIG      -0.24300
     13 C13       -10.3150   11.2417   23.5823 C.ar   1 LIG       0.09000
     14 C14        -9.2085   10.4668   23.3110 C.ar   1 LIG      -0.25800
     15 C15        -8.3042   11.3281   22.6976 C.ar   1 LIG      -0.11700
     16 N16        -8.8225   12.5733   22.5929 N.ar   1 LIG      -0.49700
     17 C17       -10.0485   12.5075   23.1371 C.ar   1 LIG       0.26500
     18 C18       -10.9769   13.5392   23.2591 C.ar   1 LIG      -0.25200
     19 H19       -13.8096   19.2638   26.8214 H      1 LIG       0.09000
     20 H20       -15.1937   18.2085   27.3140 H      1 LIG       0.09000
     21 H21       -13.6026   18.0262   28.1223 H      1 LIG       0.09000
     22 H22       -13.9437   16.2922   26.5350 H      1 LIG       0.32000
     23 H23       -11.6864   17.2283   26.8764 H      1 LIG       0.09000
     24 H24       -11.9658   18.2492   25.4238 H      1 LIG       0.09000
     25 H25       -11.4770   15.2675   25.6649 H      1 LIG       0.09000
     26 H26       -10.9152   16.4302   24.4100 H      1 LIG       0.09000
     27 H27       -14.5903   16.3219   22.9980 H      1 LIG       0.09000
     28 H28       -13.2386   17.4875   23.0826 H      1 LIG       0.09000
     29 H29       -14.5568   18.5232   24.6473 H      1 LIG       0.09000
     30 H30       -15.4933   17.0408   25.0143 H      1 LIG       0.09000
     31 H31       -13.4372   11.6916   24.7833 H      1 LIG       0.19600
     32 H32       -11.7284    9.9059   24.5222 H      1 LIG       0.20100
     33 H33        -9.0716    9.4151   23.5250 H      1 LIG       0.18300
     34 H34        -7.3186   11.0535   22.3456 H      1 LIG       0.19900
     35 H35        -8.3608   13.4109   22.1736 H      1 LIG       0.36100
     36 H36       -10.7473   14.5239   22.8738 H      1 LIG       0.19500
@<TRIPOS>BOND
      1       1       2 1
      2       2       3 1
      3       3       4 1
      4       4       5 1
      5       5       6 1
      6       6       7 1
      7       2       7 1
      8       5       8 am
      9       8       9 2
     10       8      10 1
     11      10      11 ar
     12      11      12 ar
     13      12      13 ar
     14      13      14 ar
     15      14      15 ar
     16      15      16 ar
     17      16      17 ar
     18      13      17 ar
     19      17      18 ar
     20      10      18 ar
     21       1      19 1
     22       1      20 1
     23       1      21 1
     24       2      22 1
     25       3      23 1
     26       3      24 1
     27       4      25 1
     28       4      26 1
     29       6      27 1
     30       6      28 1
     31       7      29 1
     32       7      30 1
     33      11      31 1
     34      12      32 1
     35      14      33 1
     36      15      34 1
     37      16      35 1
     38      18      36 1
@<TRIPOS>ALT_TYPE
CGenFF_4.0_ALT_TYPE_SET
CGenFF_4.0 1 CG334 2 NG3P1 3 CG324 4 CG321 5 NG2S0 6 CG321 7 CG324 8 CG2O1 9 OG2D1 10 CG2R61 11 CG2R61 12 CG2R61 13 CG2RC0 14 CG2R51 15 CG2R51 16 NG2R51 17 CG2RC0 18 CG2R61 19 HGA3 20 HGA3 21 HGA3 22 HGP2 23 HGA2 24 HGA2 25 HGA2 26 HGA2 27 HGA2 28 HGA2 29 HGA2 30 HGA2 31 HGR61 32 HGR61 33 HGR51 34 HGR52 35 HGP1 36 HGR61
@<TRIPOS>MOLECULE
ZINC01501734$11
 36 38 0 0 0
****
USER_CHARGES
INVALID_CHARGES
Pose:   1 Cluster:   1 Fr_nu:   2072 TotEn:   -10.10
@<TRIPOS>ATOM
      1 C1         -8.3901   11.3905   25.3744 C.3    1 LIG       0.14800
      2 N2         -9.3079   12.1823   24.5385 N.4    1 LIG      -0.41000
      3 C3         -8.9453   12.0377   23.1107 C.3    1 LIG       0.15900
      4 C4         -9.8747   12.8745   22.2248 C.3    1 LIG      -0.11600
      5 N5        -11.2676   12.5375   22.5261 N.am   1 LIG      -0.10100
      6 C6        -11.6835   12.5812   23.9310 C.3    1 LIG      -0.11600
      7 C7        -10.7055   11.7570   24.7773 C.3    1 LIG       0.15900
      8 C8        -12.1388   12.0187   21.5038 C.2    1 LIG       0.37400
      9 O9        -11.6725   11.2292   20.6375 O.2    1 LIG      -0.44900
     10 C10       -13.5707   12.3945   21.4444 C.ar   1 LIG      -0.09300
     11 C11       -14.0135   13.6404   21.9651 C.ar   1 LIG      -0.18800
     12 C12       -15.3700   14.0060   21.9021 C.ar   1 LIG      -0.24300
     13 C13       -16.2567   13.1141   21.3074 C.ar   1 LIG       0.09000
     14 C14       -17.6166   13.2013   21.1043 C.ar   1 LIG      -0.25800
     15 C15       -17.9634   12.0188   20.4583 C.ar   1 LIG      -0.11700
     16 N16       -16.8749   11.2380   20.2693 N.ar   1 LIG      -0.49700
     17 C17       -15.8407   11.9175   20.7914 C.ar   1 LIG       0.26500
     18 C18       -14.5049   11.5233   20.8363 C.ar   1 LIG      -0.25200
     19 H19        -8.4529   10.3077   25.1247 H      1 LIG       0.09000
     20 H20        -7.3411   11.7299   25.2277 H      1 LIG       0.09000
     21 H21        -8.6344   11.5227   26.4515 H      1 LIG       0.09000
     22 H22        -9.2049   13.1879   24.8171 H      1 LIG       0.32000
     23 H23        -7.8997   12.3809   22.9433 H      1 LIG       0.09000
     24 H24        -9.0112   10.9707   22.7966 H      1 LIG       0.09000
     25 H25        -9.6353   12.6925   21.1546 H      1 LIG       0.09000
     26 H26        -9.7093   13.9543   22.4303 H      1 LIG       0.09000
     27 H27       -12.7080   12.1700   24.0612 H      1 LIG       0.09000
     28 H28       -11.6827   13.6356   24.2822 H      1 LIG       0.09000
     29 H29       -10.9703   11.8934   25.8499 H      1 LIG       0.09000
     30 H30       -10.8331   10.6786   24.5272 H      1 LIG       0.09000
     31 H31       -13.3089   14.3346   22.4040 H      1 LIG       0.19600
     32 H32       -15.7105   14.9541   22.2980 H      1 LIG       0.20100
     33 H33       -18.2744   14.0133   21.3847 H      1 LIG       0.18300
     34 H34       -18.9623   11.7476   20.1433 H      1 LIG       0.19900
     35 H35       -16.8486   10.3003   19.8106 H      1 LIG       0.36100
     36 H36       -14.2035   10.5687   20.4229 H      1 LIG       0.19500
@<TRIPOS>BOND
      1       1       2 1
      2       2       3 1
      3       3       4 1
      4       4       5 1
      5       5       6 1
      6       6       7 1
      7       2       7 1
      8       5       8 am
      9       8       9 2
     10       8      10 1
     11      10      11 ar
     12      11      12 ar
     13      12      13 ar
     14      13      14 ar
     15      14      15 ar
     16      15      16 ar
     17      16      17 ar
     18      13      17 ar
     19      17      18 ar
     20      10      18 ar
     21       1      19 1
     22       1      20 1
     23       1      21 1
     24       2      22 1
     25       3      23 1
     26       3      24 1
     27       4      25 1
     28       4      26 1
     29       6      27 1
     30       6      28 1
     31       7      29 1
     32       7      30 1
     33      11      31 1
     34      12      32 1
     35      14      33 1
     36      15      34 1
     37      16      35 1
     38      18      36 1
@<TRIPOS>ALT_TYPE
CGenFF_4.0_ALT_TYPE_SET
CGenFF_4.0 1 CG334 2 NG3P1 3 CG324 4 CG321 5 NG2S0 6 CG321 7 CG324 8 CG2O1 9 OG2D1 10 CG2R61 11 CG2R61 12 CG2R61 13 CG2RC0 14 CG2R51 15 CG2R51 16 NG2R51 17 CG2RC0 18 CG2R61 19 HGA3 20 HGA3 21 HGA3 22 HGP2 23 HGA2 24 HGA2 25 HGA2 26 HGA2 27 HGA2 28 HGA2 29 HGA2 30 HGA2 31 HGR61 32 HGR61 33 HGR51 34 HGR52 35 HGP1 36 HGR61
@<TRIPOS>MOLECULE
ZINC01501734$12
 36 38 0 0 0
****
USER_CHARGES
INVALID_CHARGES
Pose:   1 Cluster:   1 Fr_nu:   1903 TotEn:    -8.91
@<TRIPOS>ATOM
      1 C1        -13.5016   -3.7189   18.2036 C.3    1 LIG       0.14800
      2 N2        -14.0123   -4.9341   17.5464 N.4    1 LIG      -0.41000
      3 C3        -15.4568   -5.0879   17.8069 C.3    1 LIG       0.15900
      4 C4        -15.9229   -6.4650   17.3243 C.3    1 LIG      -0.11600
      5 N5        -15.3636   -6.7749   16.0034 N.am   1 LIG      -0.10100
      6 C6        -14.6946   -5.7219   15.2264 C.3    1 LIG      -0.11600
      7 C7        -13.7062   -4.9073   16.0917 C.3    1 LIG       0.15900
      8 C8        -15.5528   -8.0956   15.4583 C.2    1 LIG       0.37400
      9 O9        -15.5017   -9.0938   16.2276 O.2    1 LIG      -0.44900
     10 C10       -15.8098   -8.3158   14.0173 C.ar   1 LIG      -0.09300
     11 C11       -15.3081   -9.4807   13.3787 C.ar   1 LIG      -0.18800
     12 C12       -15.5517   -9.7141   12.0132 C.ar   1 LIG      -0.24300
     13 C13       -16.3064   -8.7744   11.3180 C.ar   1 LIG       0.09000
     14 C14       -16.7052   -8.7408    9.9996 C.ar   1 LIG      -0.25800
     15 C15       -17.4493   -7.5716    9.8755 C.ar   1 LIG      -0.11700
     16 N16       -17.5099   -6.9134   11.0559 N.ar   1 LIG      -0.49700
     17 C17       -16.8077   -7.6565   11.9268 C.ar   1 LIG       0.26500
     18 C18       -16.5862   -7.3944   13.2772 C.ar   1 LIG      -0.25200
     19 H19       -14.0396   -2.8135   17.8437 H      1 LIG       0.09000
     20 H20       -13.6269   -3.7918   19.3065 H      1 LIG       0.09000
     21 H21       -12.4152   -3.5952   17.9982 H      1 LIG       0.09000
     22 H22       -13.5102   -5.7492   17.9752 H      1 LIG       0.32000
     23 H23       -16.0341   -4.2911   17.2844 H      1 LIG       0.09000
     24 H24       -15.6720   -5.0072   18.8965 H      1 LIG       0.09000
     25 H25       -15.5795   -7.2265   18.0584 H      1 LIG       0.09000
     26 H26       -17.0327   -6.4945   17.2787 H      1 LIG       0.09000
     27 H27       -15.4686   -5.0342   14.8226 H      1 LIG       0.09000
     28 H28       -14.1435   -6.1550   14.3630 H      1 LIG       0.09000
     29 H29       -13.7013   -3.8639   15.7003 H      1 LIG       0.09000
     30 H30       -12.6801   -5.3088   15.9308 H      1 LIG       0.09000
     31 H31       -14.7203  -10.1996   13.9358 H      1 LIG       0.19600
     32 H32       -15.1656  -10.5976   11.5212 H      1 LIG       0.20100
     33 H33       -16.4909   -9.4674    9.2272 H      1 LIG       0.18300
     34 H34       -17.9226   -7.2246    8.9665 H      1 LIG       0.19900
     35 H35       -18.0030   -6.0130   11.2466 H      1 LIG       0.36100
     36 H36       -17.0209   -6.5180   13.7398 H      1 LIG       0.19500
@<TRIPOS>BOND
      1       1       2 1
      2       2       3 1
      3       3       4 1
      4       4       5 1
      5       5       6 1
      6       6       7 1
      7       2       7 1
      8       5       8 am
      9       8       9 2
     10       8      10 1
     11      10      11 ar
     12      11      12 ar
     13      12      13 ar
     14      13      14 ar
     15      14      15 ar
     16      15      16 ar
     17      16      17 ar
     18      13      17 ar
     19      17      18 ar
     20      10      18 ar
     21       1      19 1
     22       1      20 1
     23       1      21 1
     24       2      22 1
     25       3      23 1
     26       3      24 1
     27       4      25 1
     28       4      26 1
     29       6      27 1
     30       6      28 1
     31       7      29 1
     32       7      30 1
     33      11      31 1
     34      12      32 1
     35      14      33 1
     36      15      34 1
     37      16      35 1
     38      18      36 1
@<TRIPOS>ALT_TYPE
CGenFF_4.0_ALT_TYPE_SET
CGenFF_4.0 1 CG334 2 NG3P1 3 CG324 4 CG321 5 NG2S0 6 CG321 7 CG324 8 CG2O1 9 OG2D1 10 CG2R61 11 CG2R61 12 CG2R61 13 CG2RC0 14 CG2R51 15 CG2R51 16 NG2R51 17 CG2RC0 18 CG2R61 19 HGA3 20 HGA3 21 HGA3 22 HGP2 23 HGA2 24 HGA2 25 HGA2 26 HGA2 27 HGA2 28 HGA2 29 HGA2 30 HGA2 31 HGR61 32 HGR61 33 HGR51 34 HGR52 35 HGP1 36 HGR61
@<TRIPOS>MOLECULE
ZINC01501734$13
 36 38 0 0 0
****
USER_CHARGES
INVALID_CHARGES
Pose:   1 Cluster:   1 Fr_nu:   2082 TotEn:    -9.42
@<TRIPOS>ATOM
      1 C1        -13.5016   -3.7189   18.2036 C.3    1 LIG       0.14800
      2 N2        -13.6944   -5.0329   17.5641 N.4    1 LIG      -0.41000
      3 C3        -15.0082   -5.6218   17.9482 C.3    1 LIG       0.15900
      4 C4        -16.1017   -5.3947   16.8943 C.3    1 LIG      -0.11600
      5 N5        -15.6638   -5.8986   15.5878 N.am   1 LIG      -0.10100
      6 C6        -14.2249   -6.0053   15.3135 C.3    1 LIG      -0.11600
      7 C7        -13.4755   -4.9227   16.0966 C.3    1 LIG       0.15900
      8 C8        -16.6335   -6.0799   14.5374 C.2    1 LIG       0.37400
      9 O9        -17.6830   -5.3799   14.5367 O.2    1 LIG      -0.44900
     10 C10       -16.4316   -7.0697   13.4557 C.ar   1 LIG      -0.09300
     11 C11       -16.9253   -6.8036   12.1511 C.ar   1 LIG      -0.18800
     12 C12       -16.7525   -7.7359   11.1123 C.ar   1 LIG      -0.24300
     13 C13       -16.0943   -8.9251   11.4094 C.ar   1 LIG       0.09000
     14 C14       -15.7923  -10.0076   10.6123 C.ar   1 LIG      -0.25800
     15 C15       -15.1413  -10.9060   11.4521 C.ar   1 LIG      -0.11700
     16 N16       -15.0445  -10.4075   12.7059 N.ar   1 LIG      -0.49700
     17 C17       -15.6279   -9.1985   12.6662 C.ar   1 LIG       0.26500
     18 C18       -15.7823   -8.2981   13.7183 C.ar   1 LIG      -0.25200
     19 H19       -13.5036   -3.8213   19.3113 H      1 LIG       0.09000
     20 H20       -12.5196   -3.2838   17.9129 H      1 LIG       0.09000
     21 H21       -14.3088   -3.0121   17.9087 H      1 LIG       0.09000
     22 H22       -12.9485   -5.6637   17.9452 H      1 LIG       0.32000
     23 H23       -15.3642   -5.2346   18.9298 H      1 LIG       0.09000
     24 H24       -14.8921   -6.7219   18.0804 H      1 LIG       0.09000
     25 H25       -17.0198   -5.9342   17.2151 H      1 LIG       0.09000
     26 H26       -16.3357   -4.3110   16.8172 H      1 LIG       0.09000
     27 H27       -13.8563   -7.0078   15.6177 H      1 LIG       0.09000
     28 H28       -14.0218   -5.8627   14.2293 H      1 LIG       0.09000
     29 H29       -13.8213   -3.9343   15.7135 H      1 LIG       0.09000
     30 H30       -12.3885   -4.9997   15.8690 H      1 LIG       0.09000
     31 H31       -17.4327   -5.8709   11.9379 H      1 LIG       0.19600
     32 H32       -17.1220   -7.5341   10.1150 H      1 LIG       0.20100
     33 H33       -16.0158  -10.1354    9.5615 H      1 LIG       0.18300
     34 H34       -14.7612  -11.8752   11.1573 H      1 LIG       0.19900
     35 H35       -14.6058  -10.8712   13.5324 H      1 LIG       0.36100
     36 H36       -15.4319   -8.5547   14.7095 H      1 LIG       0.19500
@<TRIPOS>BOND
      1       1       2 1
      2       2       3 1
      3       3       4 1
      4       4       5 1
      5       5       6 1
      6       6       7 1
      7       2       7 1
      8       5       8 am
      9       8       9 2
     10       8      10 1
     11      10      11 ar
     12      11      12 ar
     13      12      13 ar
     14      13      14 ar
     15      14      15 ar
     16      15      16 ar
     17      16      17 ar
     18      13      17 ar
     19      17      18 ar
     20      10      18 ar
     21       1      19 1
     22       1      20 1
     23       1      21 1
     24       2      22 1
     25       3      23 1
     26       3      24 1
     27       4      25 1
     28       4      26 1
     29       6      27 1
     30       6      28 1
     31       7      29 1
     32       7      30 1
     33      11      31 1
     34      12      32 1
     35      14      33 1
     36      15      34 1
     37      16      35 1
     38      18      36 1
@<TRIPOS>ALT_TYPE
CGenFF_4.0_ALT_TYPE_SET
CGenFF_4.0 1 CG334 2 NG3P1 3 CG324 4 CG321 5 NG2S0 6 CG321 7 CG324 8 CG2O1 9 OG2D1 10 CG2R61 11 CG2R61 12 CG2R61 13 CG2RC0 14 CG2R51 15 CG2R51 16 NG2R51 17 CG2RC0 18 CG2R61 19 HGA3 20 HGA3 21 HGA3 22 HGP2 23 HGA2 24 HGA2 25 HGA2 26 HGA2 27 HGA2 28 HGA2 29 HGA2 30 HGA2 31 HGR61 32 HGR61 33 HGR51 34 HGR52 35 HGP1 36 HGR61
@<TRIPOS>MOLECULE
ZINC01501734$14
 36 38 0 0 0
****
USER_CHARGES
INVALID_CHARGES
Pose:   1 Cluster:   1 Fr_nu:    557 TotEn:    -8.01
@<TRIPOS>ATOM
      1 C1         -9.5496   14.3913   23.5625 C.3    1 LIG       0.14800
      2 N2         -9.7510   12.9326   23.5704 N.4    1 LIG      -0.41000
      3 C3         -8.4913   12.2344   23.2033 C.3    1 LIG       0.15900
      4 C4         -8.7212   10.8013   22.6766 C.3    1 LIG      -0.11600
      5 N5        -10.0224   10.2831   23.1140 N.am   1 LIG      -0.10100
      6 C6        -11.2260   11.0815   22.8617 C.3    1 LIG      -0.11600
      7 C7        -10.8642   12.5626   22.6709 C.3    1 LIG       0.15900
      8 C8        -10.1553    8.9483   23.6336 C.2    1 LIG       0.37400
      9 O9        -11.1010    8.2199   23.2264 O.2    1 LIG      -0.44900
     10 C10        -9.2217    8.4200   24.6537 C.ar   1 LIG      -0.09300
     11 C11        -8.9756    7.0238   24.7389 C.ar   1 LIG      -0.18800
     12 C12        -8.0995    6.5055   25.7097 C.ar   1 LIG      -0.24300
     13 C13        -7.4939    7.4026   26.5839 C.ar   1 LIG       0.09000
     14 C14        -6.6117    7.1896   27.6206 C.ar   1 LIG      -0.25800
     15 C15        -6.3569    8.4527   28.1454 C.ar   1 LIG      -0.11700
     16 N16        -7.0457    9.4012   27.4701 N.ar   1 LIG      -0.49700
     17 C17        -7.7341    8.7478   26.5199 C.ar   1 LIG       0.26500
     18 C18        -8.5962    9.2950   25.5723 C.ar   1 LIG      -0.25200
     19 H19        -9.3346   14.7602   22.5347 H      1 LIG       0.09000
     20 H20        -8.7019   14.6687   24.2272 H      1 LIG       0.09000
     21 H21       -10.4567   14.9101   23.9437 H      1 LIG       0.09000
     22 H22       -10.0090   12.6605   24.5500 H      1 LIG       0.32000
     23 H23        -7.8275   12.1862   24.0957 H      1 LIG       0.09000
     24 H24        -7.9346   12.7992   22.4202 H      1 LIG       0.09000
     25 H25        -7.8872   10.1382   22.9917 H      1 LIG       0.09000
     26 H26        -8.7127   10.8225   21.5649 H      1 LIG       0.09000
     27 H27       -11.9084   10.9951   23.7358 H      1 LIG       0.09000
     28 H28       -11.7539   10.6979   21.9623 H      1 LIG       0.09000
     29 H29       -10.5781   12.7420   21.6091 H      1 LIG       0.09000
     30 H30       -11.7676   13.1766   22.8871 H      1 LIG       0.09000
     31 H31        -9.4531    6.3403   24.0480 H      1 LIG       0.19600
     32 H32        -7.9048    5.4425   25.7740 H      1 LIG       0.20100
     33 H33        -6.2059    6.2449   27.9574 H      1 LIG       0.18300
     34 H34        -5.7015    8.6629   28.9802 H      1 LIG       0.19900
     35 H35        -7.0406   10.4292   27.6534 H      1 LIG       0.36100
     36 H36        -8.7869   10.3601   25.5611 H      1 LIG       0.19500
@<TRIPOS>BOND
      1       1       2 1
      2       2       3 1
      3       3       4 1
      4       4       5 1
      5       5       6 1
      6       6       7 1
      7       2       7 1
      8       5       8 am
      9       8       9 2
     10       8      10 1
     11      10      11 ar
     12      11      12 ar
     13      12      13 ar
     14      13      14 ar
     15      14      15 ar
     16      15      16 ar
     17      16      17 ar
     18      13      17 ar
     19      17      18 ar
     20      10      18 ar
     21       1      19 1
     22       1      20 1
     23       1      21 1
     24       2      22 1
     25       3      23 1
     26       3      24 1
     27       4      25 1
     28       4      26 1
     29       6      27 1
     30       6      28 1
     31       7      29 1
     32       7      30 1
     33      11      31 1
     34      12      32 1
     35      14      33 1
     36      15      34 1
     37      16      35 1
     38      18      36 1
@<TRIPOS>ALT_TYPE
CGenFF_4.0_ALT_TYPE_SET
CGenFF_4.0 1 CG334 2 NG3P1 3 CG324 4 CG321 5 NG2S0 6 CG321 7 CG324 8 CG2O1 9 OG2D1 10 CG2R61 11 CG2R61 12 CG2R61 13 CG2RC0 14 CG2R51 15 CG2R51 16 NG2R51 17 CG2RC0 18 CG2R61 19 HGA3 20 HGA3 21 HGA3 22 HGP2 23 HGA2 24 HGA2 25 HGA2 26 HGA2 27 HGA2 28 HGA2 29 HGA2 30 HGA2 31 HGR61 32 HGR61 33 HGR51 34 HGR52 35 HGP1 36 HGR61
@<TRIPOS>MOLECULE
ZINC01501734$15
 36 38 0 0 0
****
USER_CHARGES
INVALID_CHARGES
Pose:   1 Cluster:   1 Fr_nu:   2162 TotEn:   -10.39
@<TRIPOS>ATOM
      1 C1          1.5686    8.2875   41.5605 C.3    1 LIG       0.14800
      2 N2          1.4236    7.3148   40.4644 N.4    1 LIG      -0.41000
      3 C3          0.3534    6.3334   40.7818 C.3    1 LIG       0.15900
      4 C4         -0.2256    5.6386   39.5304 C.3    1 LIG      -0.11600
      5 N5          0.7127    5.7151   38.4050 N.am   1 LIG      -0.10100
      6 C6          1.2513    7.0226   38.0172 C.3    1 LIG      -0.11600
      7 C7          1.1647    8.0139   39.1879 C.3    1 LIG       0.15900
      8 C8          0.9803    4.5674   37.5799 C.2    1 LIG       0.37400
      9 O9          0.9917    4.6995   36.3256 O.2    1 LIG      -0.44900
     10 C10         1.2659    3.2404   38.1705 C.ar   1 LIG      -0.09300
     11 C11         1.8824    3.1372   39.4462 C.ar   1 LIG      -0.18800
     12 C12         2.1666    1.8800   40.0086 C.ar   1 LIG      -0.24300
     13 C13         1.8340    0.7481   39.2712 C.ar   1 LIG       0.09000
     14 C14         1.9935   -0.5897   39.5592 C.ar   1 LIG      -0.25800
     15 C15         1.4855   -1.2621   38.4521 C.ar   1 LIG      -0.11700
     16 N16         1.0347   -0.3871   37.5241 N.ar   1 LIG      -0.49700
     17 C17         1.2532    0.8353   38.0355 C.ar   1 LIG       0.26500
     18 C18         0.9579    2.0642   37.4484 C.ar   1 LIG      -0.25200
     19 H19         0.6561    8.9168   41.6604 H      1 LIG       0.09000
     20 H20         2.4407    8.9528   41.3758 H      1 LIG       0.09000
     21 H21         1.7479    7.7611   42.5240 H      1 LIG       0.09000
     22 H22         2.3341    6.8001   40.3842 H      1 LIG       0.32000
     23 H23        -0.4907    6.8223   41.3204 H      1 LIG       0.09000
     24 H24         0.7625    5.5564   41.4659 H      1 LIG       0.09000
     25 H25        -0.4998    4.5881   39.7670 H      1 LIG       0.09000
     26 H26        -1.1640    6.1569   39.2348 H      1 LIG       0.09000
     27 H27         2.3203    6.9048   37.7333 H      1 LIG       0.09000
     28 H28         0.6943    7.4173   37.1403 H      1 LIG       0.09000
     29 H29         0.1547    8.4840   39.2036 H      1 LIG       0.09000
     30 H30         1.9125    8.8221   39.0213 H      1 LIG       0.09000
     31 H31         2.1581    4.0273   39.9961 H      1 LIG       0.19600
     32 H32         2.6356    1.7977   40.9807 H      1 LIG       0.20100
     33 H33         2.4219   -1.0255   40.4520 H      1 LIG       0.18300
     34 H34         1.4501   -2.3372   38.3347 H      1 LIG       0.19900
     35 H35         0.6060   -0.6189   36.6004 H      1 LIG       0.36100
     36 H36         0.4952    2.1053   36.4700 H      1 LIG       0.19500
@<TRIPOS>BOND
      1       1       2 1
      2       2       3 1
      3       3       4 1
      4       4       5 1
      5       5       6 1
      6       6       7 1
      7       2       7 1
      8       5       8 am
      9       8       9 2
     10       8      10 1
     11      10      11 ar
     12      11      12 ar
     13      12      13 ar
     14      13      14 ar
     15      14      15 ar
     16      15      16 ar
     17      16      17 ar
     18      13      17 ar
     19      17      18 ar
     20      10      18 ar
     21       1      19 1
     22       1      20 1
     23       1      21 1
     24       2      22 1
     25       3      23 1
     26       3      24 1
     27       4      25 1
     28       4      26 1
     29       6      27 1
     30       6      28 1
     31       7      29 1
     32       7      30 1
     33      11      31 1
     34      12      32 1
     35      14      33 1
     36      15      34 1
     37      16      35 1
     38      18      36 1
@<TRIPOS>ALT_TYPE
CGenFF_4.0_ALT_TYPE_SET
CGenFF_4.0 1 CG334 2 NG3P1 3 CG324 4 CG321 5 NG2S0 6 CG321 7 CG324 8 CG2O1 9 OG2D1 10 CG2R61 11 CG2R61 12 CG2R61 13 CG2RC0 14 CG2R51 15 CG2R51 16 NG2R51 17 CG2RC0 18 CG2R61 19 HGA3 20 HGA3 21 HGA3 22 HGP2 23 HGA2 24 HGA2 25 HGA2 26 HGA2 27 HGA2 28 HGA2 29 HGA2 30 HGA2 31 HGR61 32 HGR61 33 HGR51 34 HGR52 35 HGP1 36 HGR61
@<TRIPOS>MOLECULE
ZINC01501734$16
 36 38 0 0 0
****
USER_CHARGES
INVALID_CHARGES
Pose:   1 Cluster:   1 Fr_nu:   1395 TotEn:    -9.23
@<TRIPOS>ATOM
      1 C1         -9.2873    5.9221   28.0221 C.3    1 LIG       0.14800
      2 N2         -8.1539    5.0193   27.7579 N.4    1 LIG      -0.41000
      3 C3         -7.5702    5.3053   26.4329 C.3    1 LIG       0.15900
      4 C4         -6.2585    4.5309   26.2706 C.3    1 LIG      -0.11600
      5 N5         -6.4035    3.1487   26.7417 N.am   1 LIG      -0.10100
      6 C6         -7.7393    2.6142   27.0422 C.3    1 LIG      -0.11600
      7 C7         -8.5773    3.6000   27.8878 C.3    1 LIG       0.15900
      8 C8         -5.2318    2.3137   26.8253 C.2    1 LIG       0.37400
      9 O9         -4.1399    2.8189   27.2040 O.2    1 LIG      -0.44900
     10 C10        -5.2712    0.8761   26.4753 C.ar   1 LIG      -0.09300
     11 C11        -4.4491   -0.0458   27.1757 C.ar   1 LIG      -0.18800
     12 C12        -4.4631   -1.4142   26.8499 C.ar   1 LIG      -0.24300
     13 C13        -5.2977   -1.8273   25.8161 C.ar   1 LIG       0.09000
     14 C14        -5.5112   -3.0785   25.2801 C.ar   1 LIG      -0.25800
     15 C15        -6.4394   -2.8835   24.2622 C.ar   1 LIG      -0.11700
     16 N16        -6.7842   -1.5786   24.1704 N.ar   1 LIG      -0.49700
     17 C17        -6.0823   -0.9455   25.1244 C.ar   1 LIG       0.26500
     18 C18        -6.0926    0.4161   25.4201 C.ar   1 LIG      -0.25200
     19 H19        -8.9451    6.9804   28.0394 H      1 LIG       0.09000
     20 H20       -10.0738    5.8154   27.2418 H      1 LIG       0.09000
     21 H21        -9.7359    5.6998   29.0155 H      1 LIG       0.09000
     22 H22        -7.4277    5.2160   28.4888 H      1 LIG       0.32000
     23 H23        -8.2797    5.0169   25.6238 H      1 LIG       0.09000
     24 H24        -7.3514    6.3918   26.3244 H      1 LIG       0.09000
     25 H25        -5.9468    4.5335   25.2040 H      1 LIG       0.09000
     26 H26        -5.4740    5.0443   26.8687 H      1 LIG       0.09000
     27 H27        -7.6667    1.6466   27.5856 H      1 LIG       0.09000
     28 H28        -8.2684    2.4244   26.0834 H      1 LIG       0.09000
     29 H29        -9.6442    3.4694   27.5931 H      1 LIG       0.09000
     30 H30        -8.5070    3.2983   28.9574 H      1 LIG       0.09000
     31 H31        -3.8079    0.2942   27.9794 H      1 LIG       0.19600
     32 H32        -3.8426   -2.1210   27.3857 H      1 LIG       0.20100
     33 H33        -5.0538   -4.0116   25.5814 H      1 LIG       0.18300
     34 H34        -6.8383   -3.6592   23.6221 H      1 LIG       0.19900
     35 H35        -7.4580   -1.1547   23.4945 H      1 LIG       0.36100
     36 H36        -6.6998    1.0951   24.8360 H      1 LIG       0.19500
@<TRIPOS>BOND
      1       1       2 1
      2       2       3 1
      3       3       4 1
      4       4       5 1
      5       5       6 1
      6       6       7 1
      7       2       7 1
      8       5       8 am
      9       8       9 2
     10       8      10 1
     11      10      11 ar
     12      11      12 ar
     13      12      13 ar
     14      13      14 ar
     15      14      15 ar
     16      15      16 ar
     17      16      17 ar
     18      13      17 ar
     19      17      18 ar
     20      10      18 ar
     21       1      19 1
     22       1      20 1
     23       1      21 1
     24       2      22 1
     25       3      23 1
     26       3      24 1
     27       4      25 1
     28       4      26 1
     29       6      27 1
     30       6      28 1
     31       7      29 1
     32       7      30 1
     33      11      31 1
     34      12      32 1
     35      14      33 1
     36      15      34 1
     37      16      35 1
     38      18      36 1
@<TRIPOS>ALT_TYPE
CGenFF_4.0_ALT_TYPE_SET
CGenFF_4.0 1 CG334 2 NG3P1 3 CG324 4 CG321 5 NG2S0 6 CG321 7 CG324 8 CG2O1 9 OG2D1 10 CG2R61 11 CG2R61 12 CG2R61 13 CG2RC0 14 CG2R51 15 CG2R51 16 NG2R51 17 CG2RC0 18 CG2R61 19 HGA3 20 HGA3 21 HGA3 22 HGP2 23 HGA2 24 HGA2 25 HGA2 26 HGA2 27 HGA2 28 HGA2 29 HGA2 30 HGA2 31 HGR61 32 HGR61 33 HGR51 34 HGR52 35 HGP1 36 HGR61
@<TRIPOS>MOLECULE
ZINC01501734$17
 36 38 0 0 0
****
USER_CHARGES
INVALID_CHARGES
Pose:   1 Cluster:   1 Fr_nu:   2360 TotEn:   -12.30
@<TRIPOS>ATOM
      1 C1         -6.4581   13.3534   30.8640 C.3    1 LIG       0.14800
      2 N2         -6.6538   12.6374   29.5923 N.4    1 LIG      -0.41000
      3 C3         -6.4443   13.5526   28.4494 C.3    1 LIG       0.15900
      4 C4         -6.8369   12.8685   27.1256 C.3    1 LIG      -0.11600
      5 N5         -6.6589   11.4129   27.2252 N.am   1 LIG      -0.10100
      6 C6         -5.5742   10.9282   28.0818 C.3    1 LIG      -0.11600
      7 C7         -5.7518   11.4585   29.5205 C.3    1 LIG       0.15900
      8 C8         -7.7170   10.5208   26.8223 C.2    1 LIG       0.37400
      9 O9         -8.0262    9.5495   27.5657 O.2    1 LIG      -0.44900
     10 C10        -8.4533   10.7216   25.5526 C.ar   1 LIG      -0.09300
     11 C11        -9.7845   10.2432   25.4198 C.ar   1 LIG      -0.18800
     12 C12       -10.4964   10.4183   24.2195 C.ar   1 LIG      -0.24300
     13 C13        -9.8518   11.0653   23.1700 C.ar   1 LIG       0.09000
     14 C14       -10.2877   11.3678   21.8986 C.ar   1 LIG      -0.25800
     15 C15        -9.2126   12.0069   21.2890 C.ar   1 LIG      -0.11700
     16 N16        -8.1632   12.0963   22.1379 N.ar   1 LIG      -0.49700
     17 C17        -8.5663   11.5195   23.2819 C.ar   1 LIG       0.26500
     18 C18        -7.8317   11.3627   24.4554 C.ar   1 LIG      -0.25200
     19 H19        -6.6040   12.6627   31.7237 H      1 LIG       0.09000
     20 H20        -7.2016   14.1744   30.9650 H      1 LIG       0.09000
     21 H21        -5.4361   13.7898   30.9250 H      1 LIG       0.09000
     22 H22        -7.6472   12.3012   29.5737 H      1 LIG       0.32000
     23 H23        -7.0566   14.4754   28.5673 H      1 LIG       0.09000
     24 H24        -5.3751   13.8625   28.4004 H      1 LIG       0.09000
     25 H25        -6.2041   13.2654   26.3036 H      1 LIG       0.09000
     26 H26        -7.8976   13.1132   26.8960 H      1 LIG       0.09000
     27 H27        -4.6095   11.3002   27.6723 H      1 LIG       0.09000
     28 H28        -5.5196    9.8174   28.0794 H      1 LIG       0.09000
     29 H29        -4.7430   11.7028   29.9259 H      1 LIG       0.09000
     30 H30        -6.1687   10.6420   30.1523 H      1 LIG       0.09000
     31 H31       -10.2732    9.7451   26.2478 H      1 LIG       0.19600
     32 H32       -11.5126   10.0598   24.1167 H      1 LIG       0.20100
     33 H33       -11.2553   11.1528   21.4647 H      1 LIG       0.18300
     34 H34        -9.2020   12.3844   20.2751 H      1 LIG       0.19900
     35 H35        -7.2321   12.5259   21.9402 H      1 LIG       0.36100
     36 H36        -6.8077   11.7091   24.5049 H      1 LIG       0.19500
@<TRIPOS>BOND
      1       1       2 1
      2       2       3 1
      3       3       4 1
      4       4       5 1
      5       5       6 1
      6       6       7 1
      7       2       7 1
      8       5       8 am
      9       8       9 2
     10       8      10 1
     11      10      11 ar
     12      11      12 ar
     13      12      13 ar
     14      13      14 ar
     15      14      15 ar
     16      15      16 ar
     17      16      17 ar
     18      13      17 ar
     19      17      18 ar
     20      10      18 ar
     21       1      19 1
     22       1      20 1
     23       1      21 1
     24       2      22 1
     25       3      23 1
     26       3      24 1
     27       4      25 1
     28       4      26 1
     29       6      27 1
     30       6      28 1
     31       7      29 1
     32       7      30 1
     33      11      31 1
     34      12      32 1
     35      14      33 1
     36      15      34 1
     37      16      35 1
     38      18      36 1
@<TRIPOS>ALT_TYPE
CGenFF_4.0_ALT_TYPE_SET
CGenFF_4.0 1 CG334 2 NG3P1 3 CG324 4 CG321 5 NG2S0 6 CG321 7 CG324 8 CG2O1 9 OG2D1 10 CG2R61 11 CG2R61 12 CG2R61 13 CG2RC0 14 CG2R51 15 CG2R51 16 NG2R51 17 CG2RC0 18 CG2R61 19 HGA3 20 HGA3 21 HGA3 22 HGP2 23 HGA2 24 HGA2 25 HGA2 26 HGA2 27 HGA2 28 HGA2 29 HGA2 30 HGA2 31 HGR61 32 HGR61 33 HGR51 34 HGR52 35 HGP1 36 HGR61
@<TRIPOS>MOLECULE
ZINC01501734$18
 36 38 0 0 0
****
USER_CHARGES
INVALID_CHARGES
Pose:   1 Cluster:   1 Fr_nu:   2197 TotEn:   -12.76
@<TRIPOS>ATOM
      1 C1          0.9642    7.8178   41.9439 C.3    1 LIG       0.14800
      2 N2          0.9377    6.8759   40.8121 N.4    1 LIG      -0.41000
      3 C3          1.7328    7.4095   39.6749 C.3    1 LIG       0.15900
      4 C4          1.3216    6.8206   38.3076 C.3    1 LIG      -0.11600
      5 N5          0.6434    5.5326   38.4731 N.am   1 LIG      -0.10100
      6 C6         -0.4856    5.4314   39.4064 C.3    1 LIG      -0.11600
      7 C7         -0.4564    6.5841   40.4199 C.3    1 LIG       0.15900
      8 C8          0.9196    4.4571   37.5612 C.2    1 LIG       0.37400
      9 O9          0.9917    4.6995   36.3256 O.2    1 LIG      -0.44900
     10 C10         1.1358    3.0760   38.0462 C.ar   1 LIG      -0.09300
     11 C11         1.6624    2.8435   39.3450 C.ar   1 LIG      -0.18800
     12 C12         1.8847    1.5343   39.8078 C.ar   1 LIG      -0.24300
     13 C13         1.5819    0.4817   38.9499 C.ar   1 LIG       0.09000
     14 C14         1.6968   -0.8801   39.1244 C.ar   1 LIG      -0.25800
     15 C15         1.2523   -1.4377   37.9297 C.ar   1 LIG      -0.11700
     16 N16         0.8814   -0.4722   37.0578 N.ar   1 LIG      -0.49700
     17 C17         1.0874    0.6937   37.6920 C.ar   1 LIG       0.26500
     18 C18         0.8552    1.9772   37.2012 C.ar   1 LIG      -0.25200
     19 H19         2.0139    8.0493   42.2305 H      1 LIG       0.09000
     20 H20         0.4661    7.3709   42.8324 H      1 LIG       0.09000
     21 H21         0.4455    8.7681   41.6859 H      1 LIG       0.09000
     22 H22         1.3838    5.9854   41.1409 H      1 LIG       0.32000
     23 H23         1.6419    8.5181   39.6068 H      1 LIG       0.09000
     24 H24         2.8097    7.1864   39.8491 H      1 LIG       0.09000
     25 H25         2.2208    6.7166   37.6607 H      1 LIG       0.09000
     26 H26         0.6237    7.5237   37.8027 H      1 LIG       0.09000
     27 H27        -0.4327    4.4731   39.9640 H      1 LIG       0.09000
     28 H28        -1.4419    5.4486   38.8408 H      1 LIG       0.09000
     29 H29        -1.0628    6.2895   41.3063 H      1 LIG       0.09000
     30 H30        -0.9284    7.4879   39.9706 H      1 LIG       0.09000
     31 H31         1.9139    3.6742   39.9921 H      1 LIG       0.19600
     32 H32         2.2847    1.3534   40.7971 H      1 LIG       0.20100
     33 H33         2.0559   -1.4046   40.0000 H      1 LIG       0.18300
     34 H34         1.2051   -2.4967   37.7128 H      1 LIG       0.19900
     35 H35         0.5118   -0.6095   36.0909 H      1 LIG       0.36100
     36 H36         0.4611    2.1171   36.2022 H      1 LIG       0.19500
@<TRIPOS>BOND
      1       1       2 1
      2       2       3 1
      3       3       4 1
      4       4       5 1
      5       5       6 1
      6       6       7 1
      7       2       7 1
      8       5       8 am
      9       8       9 2
     10       8      10 1
     11      10      11 ar
     12      11      12 ar
     13      12      13 ar
     14      13      14 ar
     15      14      15 ar
     16      15      16 ar
     17      16      17 ar
     18      13      17 ar
     19      17      18 ar
     20      10      18 ar
     21       1      19 1
     22       1      20 1
     23       1      21 1
     24       2      22 1
     25       3      23 1
     26       3      24 1
     27       4      25 1
     28       4      26 1
     29       6      27 1
     30       6      28 1
     31       7      29 1
     32       7      30 1
     33      11      31 1
     34      12      32 1
     35      14      33 1
     36      15      34 1
     37      16      35 1
     38      18      36 1
@<TRIPOS>ALT_TYPE
CGenFF_4.0_ALT_TYPE_SET
CGenFF_4.0 1 CG334 2 NG3P1 3 CG324 4 CG321 5 NG2S0 6 CG321 7 CG324 8 CG2O1 9 OG2D1 10 CG2R61 11 CG2R61 12 CG2R61 13 CG2RC0 14 CG2R51 15 CG2R51 16 NG2R51 17 CG2RC0 18 CG2R61 19 HGA3 20 HGA3 21 HGA3 22 HGP2 23 HGA2 24 HGA2 25 HGA2 26 HGA2 27 HGA2 28 HGA2 29 HGA2 30 HGA2 31 HGR61 32 HGR61 33 HGR51 34 HGR52 35 HGP1 36 HGR61
@<TRIPOS>MOLECULE
ZINC01501734$19
 36 38 0 0 0
****
USER_CHARGES
INVALID_CHARGES
Pose:   1 Cluster:   1 Fr_nu:   2311 TotEn:   -12.79
@<TRIPOS>ATOM
      1 C1         -5.4696    5.7704   37.2200 C.3    1 LIG       0.14800
      2 N2         -4.1118    5.2004   37.2400 N.4    1 LIG      -0.41000
      3 C3         -3.2809    5.8035   36.1652 C.3    1 LIG       0.15900
      4 C4         -2.0833    4.9214   35.7512 C.3    1 LIG      -0.11600
      5 N5         -1.7299    3.9807   36.8197 N.am   1 LIG      -0.10100
      6 C6         -2.7825    3.1240   37.3840 C.3    1 LIG      -0.11600
      7 C7         -4.1712    3.7284   37.1268 C.3    1 LIG       0.15900
      8 C8         -0.4132    4.0007   37.4046 C.2    1 LIG       0.37400
      9 O9          0.2029    5.0963   37.5099 O.2    1 LIG      -0.44900
     10 C10         0.2283    2.7659   37.9058 C.ar   1 LIG      -0.09300
     11 C11         1.0641    2.8166   39.0523 C.ar   1 LIG      -0.18800
     12 C12         1.6910    1.6545   39.5372 C.ar   1 LIG      -0.24300
     13 C13         1.4728    0.4641   38.8508 C.ar   1 LIG       0.09000
     14 C14         1.9519   -0.8069   39.0825 C.ar   1 LIG      -0.25800
     15 C15         1.4119   -1.5889   38.0665 C.ar   1 LIG      -0.11700
     16 N16         0.6378   -0.8425   37.2457 N.ar   1 LIG      -0.49700
     17 C17         0.6819    0.4072   37.7358 C.ar   1 LIG       0.26500
     18 C18         0.0464    1.5385   37.2282 C.ar   1 LIG      -0.25200
     19 H19        -6.0069    5.4917   36.2860 H      1 LIG       0.09000
     20 H20        -6.0571    5.4040   38.0906 H      1 LIG       0.09000
     21 H21        -5.4249    6.8797   37.2900 H      1 LIG       0.09000
     22 H22        -3.6864    5.4459   38.1669 H      1 LIG       0.32000
     23 H23        -3.8881    6.0019   35.2520 H      1 LIG       0.09000
     24 H24        -2.8940    6.7874   36.5144 H      1 LIG       0.09000
     25 H25        -1.2205    5.5631   35.4683 H      1 LIG       0.09000
     26 H26        -2.3592    4.3347   34.8480 H      1 LIG       0.09000
     27 H27        -2.6376    3.0358   38.4835 H      1 LIG       0.09000
     28 H28        -2.7319    2.1088   36.9391 H      1 LIG       0.09000
     29 H29        -4.8835    3.3034   37.8699 H      1 LIG       0.09000
     30 H30        -4.5239    3.4335   36.1119 H      1 LIG       0.09000
     31 H31         1.2196    3.7522   39.5750 H      1 LIG       0.19600
     32 H32         2.3240    1.6875   40.4148 H      1 LIG       0.20100
     33 H33         2.6096   -1.1284   39.8792 H      1 LIG       0.18300
     34 H34         1.5808   -2.6497   37.9363 H      1 LIG       0.19900
     35 H35         0.1154   -1.1737   36.4043 H      1 LIG       0.36100
     36 H36        -0.5463    1.4715   36.3251 H      1 LIG       0.19500
@<TRIPOS>BOND
      1       1       2 1
      2       2       3 1
      3       3       4 1
      4       4       5 1
      5       5       6 1
      6       6       7 1
      7       2       7 1
      8       5       8 am
      9       8       9 2
     10       8      10 1
     11      10      11 ar
     12      11      12 ar
     13      12      13 ar
     14      13      14 ar
     15      14      15 ar
     16      15      16 ar
     17      16      17 ar
     18      13      17 ar
     19      17      18 ar
     20      10      18 ar
     21       1      19 1
     22       1      20 1
     23       1      21 1
     24       2      22 1
     25       3      23 1
     26       3      24 1
     27       4      25 1
     28       4      26 1
     29       6      27 1
     30       6      28 1
     31       7      29 1
     32       7      30 1
     33      11      31 1
     34      12      32 1
     35      14      33 1
     36      15      34 1
     37      16      35 1
     38      18      36 1
@<TRIPOS>ALT_TYPE
CGenFF_4.0_ALT_TYPE_SET
CGenFF_4.0 1 CG334 2 NG3P1 3 CG324 4 CG321 5 NG2S0 6 CG321 7 CG324 8 CG2O1 9 OG2D1 10 CG2R61 11 CG2R61 12 CG2R61 13 CG2RC0 14 CG2R51 15 CG2R51 16 NG2R51 17 CG2RC0 18 CG2R61 19 HGA3 20 HGA3 21 HGA3 22 HGP2 23 HGA2 24 HGA2 25 HGA2 26 HGA2 27 HGA2 28 HGA2 29 HGA2 30 HGA2 31 HGR61 32 HGR61 33 HGR51 34 HGR52 35 HGP1 36 HGR61
@<TRIPOS>MOLECULE
ZINC01501734$20
 35 37 0 0 0
****
USER_CHARGES
INVALID_CHARGES
Pose:   1 Cluster:   1 Fr_nu:   2128 TotEn:   -10.91
@<TRIPOS>ATOM
      1 C1         -3.6005    8.1540   39.9016 C.3    1 LIG      -0.09400
      2 N2         -2.7119    7.1946   39.2290 N.3    1 LIG      -0.71400
      3 C3         -1.3398    7.7203   39.1610 C.3    1 LIG       0.08600
      4 C4         -0.5339    6.8475   38.2009 C.3    1 LIG       0.02500
      5 N5         -0.7710    5.4222   38.4625 N.am   1 LIG      -0.37100
      6 C6         -1.5061    5.0080   39.6672 C.3    1 LIG       0.02500
      7 C7         -2.7646    5.8746   39.9012 C.3    1 LIG       0.08600
      8 C8         -0.2129    4.4463   37.5605 C.2    1 LIG       0.37400
      9 O9         -0.1717    4.6995   36.3256 O.2    1 LIG      -0.44900
     10 C10         0.3168    3.1510   38.0422 C.ar   1 LIG      -0.09300
     11 C11         1.0034    3.0671   39.2824 C.ar   1 LIG      -0.18800
     12 C12         1.5184    1.8401   39.7378 C.ar   1 LIG      -0.24300
     13 C13         1.3420    0.7212   38.9297 C.ar   1 LIG       0.09000
     14 C14         1.7345   -0.5871   39.1097 C.ar   1 LIG      -0.25800
     15 C15         1.2926   -1.2579   37.9736 C.ar   1 LIG      -0.11700
     16 N16         0.6593   -0.4099   37.1311 N.ar   1 LIG      -0.49700
     17 C17         0.6964    0.7939   37.7256 C.ar   1 LIG       0.26500
     18 C18         0.1745    1.9928   37.2439 C.ar   1 LIG      -0.25200
     19 H19        -4.6309    7.7419   39.9649 H      1 LIG       0.09000
     20 H20        -3.2378    8.3866   40.9278 H      1 LIG       0.09000
     21 H21        -3.6568    9.0959   39.3149 H      1 LIG       0.09000
     22 H22        -1.3359    8.7633   38.7722 H      1 LIG       0.09000
     23 H23        -0.8661    7.7229   40.1696 H      1 LIG       0.09000
     24 H24        -0.8499    7.0889   37.1625 H      1 LIG       0.09000
     25 H25         0.5492    7.0734   38.3036 H      1 LIG       0.09000
     26 H26        -0.8330    5.1105   40.5454 H      1 LIG       0.09000
     27 H27        -1.8116    3.9409   39.5979 H      1 LIG       0.09000
     28 H28        -2.9060    5.9852   41.0012 H      1 LIG       0.09000
     29 H29        -3.6486    5.3255   39.5106 H      1 LIG       0.09000
     30 H30         1.1600    3.9526   39.8840 H      1 LIG       0.19600
     31 H31         2.0426    1.7719   40.6823 H      1 LIG       0.20100
     32 H32         2.2718   -1.0045   39.9510 H      1 LIG       0.18300
     33 H33         1.4306   -2.3128   37.7765 H      1 LIG       0.19900
     34 H34         0.2316   -0.6466   36.2083 H      1 LIG       0.36100
     35 H35        -0.3346    2.0238   36.2885 H      1 LIG       0.19500
@<TRIPOS>BOND
      1       1       2 1
      2       2       3 1
      3       3       4 1
      4       4       5 1
      5       5       6 1
      6       6       7 1
      7       2       7 1
      8       5       8 am
      9       8       9 2
     10       8      10 1
     11      10      11 ar
     12      11      12 ar
     13      12      13 ar
     14      13      14 ar
     15      14      15 ar
     16      15      16 ar
     17      16      17 ar
     18      13      17 ar
     19      17      18 ar
     20      10      18 ar
     21       1      19 1
     22       1      20 1
     23       1      21 1
     24       3      22 1
     25       3      23 1
     26       4      24 1
     27       4      25 1
     28       6      26 1
     29       6      27 1
     30       7      28 1
     31       7      29 1
     32      11      30 1
     33      12      31 1
     34      14      32 1
     35      15      33 1
     36      16      34 1
     37      18      35 1
@<TRIPOS>ALT_TYPE
CGenFF_4.0_ALT_TYPE_SET
CGenFF_4.0 1 CG331 2 NG301 3 CG321 4 CG321 5 NG2S0 6 CG321 7 CG321 8 CG2O1 9 OG2D1 10 CG2R61 11 CG2R61 12 CG2R61 13 CG2RC0 14 CG2R51 15 CG2R51 16 NG2R51 17 CG2RC0 18 CG2R61 19 HGA3 20 HGA3 21 HGA3 22 HGA2 23 HGA2 24 HGA2 25 HGA2 26 HGA2 27 HGA2 28 HGA2 29 HGA2 30 HGR61 31 HGR61 32 HGR51 33 HGR52 34 HGP1 35 HGR61
@<TRIPOS>MOLECULE
ZINC01501734$21
 35 37 0 0 0
****
USER_CHARGES
INVALID_CHARGES
Pose:   1 Cluster:   1 Fr_nu:    596 TotEn:   -11.33
@<TRIPOS>ATOM
      1 C1          7.6150    7.3431   21.3253 C.3    1 LIG      -0.09400
      2 N2          7.7099    6.6538   22.6207 N.3    1 LIG      -0.71400
      3 C3          8.8264    7.2090   23.4231 C.3    1 LIG       0.08600
      4 C4          8.6852    6.9212   24.9329 C.3    1 LIG       0.02500
      5 N5          7.7951    5.7784   25.1680 N.am   1 LIG      -0.37100
      6 C6          6.4679    5.7700   24.5348 C.3    1 LIG       0.02500
      7 C7          6.4290    6.7335   23.3441 C.3    1 LIG       0.08600
      8 C8          8.2689    4.6190   25.8805 C.2    1 LIG       0.37400
      9 O9          9.4737    4.2655   25.7603 O.2    1 LIG      -0.44900
     10 C10         7.3683    3.8180   26.7375 C.ar   1 LIG      -0.09300
     11 C11         7.5366    2.4108   26.8224 C.ar   1 LIG      -0.18800
     12 C12         6.6967    1.6341   27.6409 C.ar   1 LIG      -0.24300
     13 C13         5.7090    2.2915   28.3675 C.ar   1 LIG       0.09000
     14 C14         4.7629    1.8035   29.2423 C.ar   1 LIG      -0.25800
     15 C15         4.0594    2.9224   29.6770 C.ar   1 LIG      -0.11700
     16 N16         4.5438    4.0474   29.1025 N.ar   1 LIG      -0.49700
     17 C17         5.5482    3.6488   28.3050 C.ar   1 LIG       0.26500
     18 C18         6.3625    4.4482   27.5054 C.ar   1 LIG      -0.25200
     19 H19         6.8628    6.8393   20.6811 H      1 LIG       0.09000
     20 H20         7.3239    8.4092   21.4572 H      1 LIG       0.09000
     21 H21         8.5902    7.2956   20.7940 H      1 LIG       0.09000
     22 H22         9.7733    6.7510   23.0637 H      1 LIG       0.09000
     23 H23         8.9149    8.3113   23.2857 H      1 LIG       0.09000
     24 H24         9.6887    6.7595   25.3838 H      1 LIG       0.09000
     25 H25         8.2464    7.8125   25.4323 H      1 LIG       0.09000
     26 H26         6.2433    4.7457   24.1628 H      1 LIG       0.09000
     27 H27         5.6883    6.0583   25.2697 H      1 LIG       0.09000
     28 H28         6.2440    7.7730   23.7005 H      1 LIG       0.09000
     29 H29         5.5832    6.4404   22.6825 H      1 LIG       0.09000
     30 H30         8.3097    1.9167   26.2470 H      1 LIG       0.19600
     31 H31         6.8175    0.5602   27.7036 H      1 LIG       0.20100
     32 H32         4.6027    0.7737   29.5331 H      1 LIG       0.18300
     33 H33         3.2369    2.9103   30.3799 H      1 LIG       0.19900
     34 H34         4.2040    5.0235   29.2518 H      1 LIG       0.36100
     35 H35         6.2352    5.5231   27.5006 H      1 LIG       0.19500
@<TRIPOS>BOND
      1       1       2 1
      2       2       3 1
      3       3       4 1
      4       4       5 1
      5       5       6 1
      6       6       7 1
      7       2       7 1
      8       5       8 am
      9       8       9 2
     10       8      10 1
     11      10      11 ar
     12      11      12 ar
     13      12      13 ar
     14      13      14 ar
     15      14      15 ar
     16      15      16 ar
     17      16      17 ar
     18      13      17 ar
     19      17      18 ar
     20      10      18 ar
     21       1      19 1
     22       1      20 1
     23       1      21 1
     24       3      22 1
     25       3      23 1
     26       4      24 1
     27       4      25 1
     28       6      26 1
     29       6      27 1
     30       7      28 1
     31       7      29 1
     32      11      30 1
     33      12      31 1
     34      14      32 1
     35      15      33 1
     36      16      34 1
     37      18      35 1
@<TRIPOS>ALT_TYPE
CGenFF_4.0_ALT_TYPE_SET
CGenFF_4.0 1 CG331 2 NG301 3 CG321 4 CG321 5 NG2S0 6 CG321 7 CG321 8 CG2O1 9 OG2D1 10 CG2R61 11 CG2R61 12 CG2R61 13 CG2RC0 14 CG2R51 15 CG2R51 16 NG2R51 17 CG2RC0 18 CG2R61 19 HGA3 20 HGA3 21 HGA3 22 HGA2 23 HGA2 24 HGA2 25 HGA2 26 HGA2 27 HGA2 28 HGA2 29 HGA2 30 HGR61 31 HGR61 32 HGR51 33 HGR52 34 HGP1 35 HGR61
@<TRIPOS>MOLECULE
ZINC01501734$22
 35 37 0 0 0
****
USER_CHARGES
INVALID_CHARGES
Pose:   1 Cluster:   1 Fr_nu:   2172 TotEn:   -10.81
@<TRIPOS>ATOM
      1 C1          0.6937    8.3728   40.6851 C.3    1 LIG      -0.09400
      2 N2         -0.1000    7.8344   39.5675 N.3    1 LIG      -0.71400
      3 C3         -0.6367    6.4856   39.8520 C.3    1 LIG       0.08600
      4 C4          0.4370    5.3910   39.7692 C.3    1 LIG       0.02500
      5 N5          1.1657    5.5144   38.5048 N.am   1 LIG      -0.37100
      6 C6          1.7216    6.8262   38.1713 C.3    1 LIG       0.02500
      7 C7          0.6229    7.8922   38.2782 C.3    1 LIG       0.08600
      8 C8          1.1836    4.4408   37.5452 C.2    1 LIG       0.37400
      9 O9          0.9917    4.6995   36.3256 O.2    1 LIG      -0.44900
     10 C10         1.4264    3.0390   37.9586 C.ar   1 LIG      -0.09300
     11 C11         2.1826    2.7504   39.1266 C.ar   1 LIG      -0.18800
     12 C12         2.4243    1.4213   39.5179 C.ar   1 LIG      -0.24300
     13 C13         1.9077    0.4049   38.7210 C.ar   1 LIG       0.09000
     14 C14         1.9850   -0.9646   38.8505 C.ar   1 LIG      -0.25800
     15 C15         1.2883   -1.4720   37.7583 C.ar   1 LIG      -0.11700
     16 N16         0.8041   -0.4696   36.9898 N.ar   1 LIG      -0.49700
     17 C17         1.1889    0.6698   37.5876 C.ar   1 LIG       0.26500
     18 C18         0.9307    1.9740   37.1702 C.ar   1 LIG      -0.25200
     19 H19         0.0778    8.4020   41.6092 H      1 LIG       0.09000
     20 H20         1.0028    9.4167   40.4647 H      1 LIG       0.09000
     21 H21         1.6010    7.7646   40.8801 H      1 LIG       0.09000
     22 H22        -1.1153    6.4615   40.8557 H      1 LIG       0.09000
     23 H23        -1.4362    6.2565   39.1138 H      1 LIG       0.09000
     24 H24         1.1470    5.4842   40.6178 H      1 LIG       0.09000
     25 H25        -0.0595    4.3997   39.8501 H      1 LIG       0.09000
     26 H26         2.5527    7.0610   38.8690 H      1 LIG       0.09000
     27 H27         2.1451    6.8349   37.1434 H      1 LIG       0.09000
     28 H28         1.0670    8.9005   38.1265 H      1 LIG       0.09000
     29 H29        -0.1052    7.7379   37.4520 H      1 LIG       0.09000
     30 H30         2.5984    3.5510   39.7245 H      1 LIG       0.19600
     31 H31         2.9997    1.1982   40.4071 H      1 LIG       0.20100
     32 H32         2.4807   -1.5261   39.6313 H      1 LIG       0.18300
     33 H33         1.1460   -2.5222   37.5399 H      1 LIG       0.19900
     34 H34         0.2465   -0.5663   36.1122 H      1 LIG       0.36100
     35 H35         0.3560    2.1551   36.2704 H      1 LIG       0.19500
@<TRIPOS>BOND
      1       1       2 1
      2       2       3 1
      3       3       4 1
      4       4       5 1
      5       5       6 1
      6       6       7 1
      7       2       7 1
      8       5       8 am
      9       8       9 2
     10       8      10 1
     11      10      11 ar
     12      11      12 ar
     13      12      13 ar
     14      13      14 ar
     15      14      15 ar
     16      15      16 ar
     17      16      17 ar
     18      13      17 ar
     19      17      18 ar
     20      10      18 ar
     21       1      19 1
     22       1      20 1
     23       1      21 1
     24       3      22 1
     25       3      23 1
     26       4      24 1
     27       4      25 1
     28       6      26 1
     29       6      27 1
     30       7      28 1
     31       7      29 1
     32      11      30 1
     33      12      31 1
     34      14      32 1
     35      15      33 1
     36      16      34 1
     37      18      35 1
@<TRIPOS>ALT_TYPE
CGenFF_4.0_ALT_TYPE_SET
CGenFF_4.0 1 CG331 2 NG301 3 CG321 4 CG321 5 NG2S0 6 CG321 7 CG321 8 CG2O1 9 OG2D1 10 CG2R61 11 CG2R61 12 CG2R61 13 CG2RC0 14 CG2R51 15 CG2R51 16 NG2R51 17 CG2RC0 18 CG2R61 19 HGA3 20 HGA3 21 HGA3 22 HGA2 23 HGA2 24 HGA2 25 HGA2 26 HGA2 27 HGA2 28 HGA2 29 HGA2 30 HGR61 31 HGR61 32 HGR51 33 HGR52 34 HGP1 35 HGR61
@<TRIPOS>MOLECULE
ZINC01501734$23
 35 37 0 0 0
****
USER_CHARGES
INVALID_CHARGES
Pose:   1 Cluster:   1 Fr_nu:   1322 TotEn:   -11.77
@<TRIPOS>ATOM
      1 C1         10.2692    9.0665   26.9876 C.3    1 LIG      -0.09400
      2 N2          9.3596    8.1563   26.2763 N.3    1 LIG      -0.71400
      3 C3          7.9578    8.6233   26.4008 C.3    1 LIG       0.08600
      4 C4          7.0300    8.0317   25.3185 C.3    1 LIG       0.02500
      5 N5          7.6125    6.8166   24.7361 N.am   1 LIG      -0.37100
      6 C6          8.9906    6.8565   24.2346 C.3    1 LIG       0.02500
      7 C7          9.7620    8.0214   24.8647 C.3    1 LIG       0.08600
      8 C8          6.8116    5.6436   24.5072 C.2    1 LIG       0.37400
      9 O9          6.9054    5.0393   23.4042 O.2    1 LIG      -0.44900
     10 C10         5.8991    5.1160   25.5467 C.ar   1 LIG      -0.09300
     11 C11         4.7447    4.3778   25.1727 C.ar   1 LIG      -0.18800
     12 C12         3.8739    3.8605   26.1487 C.ar   1 LIG      -0.24300
     13 C13         4.1869    4.0881   27.4852 C.ar   1 LIG       0.09000
     14 C14         3.5360    3.7053   28.6377 C.ar   1 LIG      -0.25800
     15 C15         4.3145    4.2050   29.6770 C.ar   1 LIG      -0.11700
     16 N16         5.3934    4.8637   29.1950 N.ar   1 LIG      -0.49700
     17 C17         5.3031    4.7861   27.8573 C.ar   1 LIG       0.26500
     18 C18         6.1872    5.3113   26.9176 C.ar   1 LIG      -0.25200
     19 H19         9.9481    9.1789   28.0457 H      1 LIG       0.09000
     20 H20        11.2973    8.6450   26.9974 H      1 LIG       0.09000
     21 H21        10.2930   10.0695   26.5059 H      1 LIG       0.09000
     22 H22         7.8960    9.7346   26.3436 H      1 LIG       0.09000
     23 H23         7.5762    8.3210   27.4000 H      1 LIG       0.09000
     24 H24         6.9059    8.7802   24.5057 H      1 LIG       0.09000
     25 H25         6.0190    7.8435   25.7392 H      1 LIG       0.09000
     26 H26         8.9890    6.9541   23.1277 H      1 LIG       0.09000
     27 H27         9.5025    5.9070   24.5064 H      1 LIG       0.09000
     28 H28         9.5535    8.9627   24.3060 H      1 LIG       0.09000
     29 H29        10.8511    7.8063   24.7835 H      1 LIG       0.09000
     30 H30         4.5148    4.2129   24.1275 H      1 LIG       0.19600
     31 H31         2.9900    3.3024   25.8676 H      1 LIG       0.20100
     32 H32         2.6193    3.1364   28.7192 H      1 LIG       0.18300
     33 H33         4.1001    4.0891   30.7312 H      1 LIG       0.19900
     34 H34         6.1408    5.3343   29.7522 H      1 LIG       0.36100
     35 H35         7.0756    5.8378   27.2410 H      1 LIG       0.19500
@<TRIPOS>BOND
      1       1       2 1
      2       2       3 1
      3       3       4 1
      4       4       5 1
      5       5       6 1
      6       6       7 1
      7       2       7 1
      8       5       8 am
      9       8       9 2
     10       8      10 1
     11      10      11 ar
     12      11      12 ar
     13      12      13 ar
     14      13      14 ar
     15      14      15 ar
     16      15      16 ar
     17      16      17 ar
     18      13      17 ar
     19      17      18 ar
     20      10      18 ar
     21       1      19 1
     22       1      20 1
     23       1      21 1
     24       3      22 1
     25       3      23 1
     26       4      24 1
     27       4      25 1
     28       6      26 1
     29       6      27 1
     30       7      28 1
     31       7      29 1
     32      11      30 1
     33      12      31 1
     34      14      32 1
     35      15      33 1
     36      16      34 1
     37      18      35 1
@<TRIPOS>ALT_TYPE
CGenFF_4.0_ALT_TYPE_SET
CGenFF_4.0 1 CG331 2 NG301 3 CG321 4 CG321 5 NG2S0 6 CG321 7 CG321 8 CG2O1 9 OG2D1 10 CG2R61 11 CG2R61 12 CG2R61 13 CG2RC0 14 CG2R51 15 CG2R51 16 NG2R51 17 CG2RC0 18 CG2R61 19 HGA3 20 HGA3 21 HGA3 22 HGA2 23 HGA2 24 HGA2 25 HGA2 26 HGA2 27 HGA2 28 HGA2 29 HGA2 30 HGR61 31 HGR61 32 HGR51 33 HGR52 34 HGP1 35 HGR61
@<TRIPOS>MOLECULE
ZINC01501734$24
 35 37 0 0 0
****
USER_CHARGES
INVALID_CHARGES
Pose:   1 Cluster:   1 Fr_nu:   1490 TotEn:    -9.47
@<TRIPOS>ATOM
      1 C1          9.4051    4.8012   26.3165 C.3    1 LIG      -0.09400
      2 N2          8.2363    4.8549   27.2069 N.3    1 LIG      -0.71400
      3 C3          8.5032    4.1046   28.4578 C.3    1 LIG       0.08600
      4 C4          7.2130    3.7041   29.2043 C.3    1 LIG       0.02500
      5 N5          6.0831    4.5421   28.7846 N.am   1 LIG      -0.37100
      6 C6          5.7982    4.6894   27.3530 C.3    1 LIG       0.02500
      7 C7          7.0365    4.3483   26.5168 C.3    1 LIG       0.08600
      8 C8          5.1618    5.0849   29.7472 C.2    1 LIG       0.37400
      9 O9          3.9228    5.0123   29.5228 O.2    1 LIG      -0.44900
     10 C10         5.6359    5.7477   30.9830 C.ar   1 LIG      -0.09300
     11 C11         6.8895    6.4155   31.0072 C.ar   1 LIG      -0.18800
     12 C12         7.3411    7.0568   32.1744 C.ar   1 LIG      -0.24300
     13 C13         6.5167    7.0233   33.2946 C.ar   1 LIG       0.09000
     14 C14         6.6898    7.5570   34.5529 C.ar   1 LIG      -0.25800
     15 C15         5.5379    7.2142   35.2540 C.ar   1 LIG      -0.11700
     16 N16         4.6927    6.5049   34.4713 N.ar   1 LIG      -0.49700
     17 C17         5.3011    6.3956   33.2789 C.ar   1 LIG       0.26500
     18 C18         4.8227    5.7505   32.1401 C.ar   1 LIG      -0.25200
     19 H19         9.2468    5.4671   25.4413 H      1 LIG       0.09000
     20 H20        10.3097    5.1656   26.8498 H      1 LIG       0.09000
     21 H21         9.5886    3.7647   25.9552 H      1 LIG       0.09000
     22 H22         9.1157    4.7471   29.1266 H      1 LIG       0.09000
     23 H23         9.0907    3.1794   28.2560 H      1 LIG       0.09000
     24 H24         7.3741    3.7492   30.3027 H      1 LIG       0.09000
     25 H25         6.9707    2.6472   28.9580 H      1 LIG       0.09000
     26 H26         5.5139    5.7450   27.1472 H      1 LIG       0.09000
     27 H27         4.9504    4.0313   27.0650 H      1 LIG       0.09000
     28 H28         6.9264    4.8234   25.5163 H      1 LIG       0.09000
     29 H29         7.1049    3.2458   26.3699 H      1 LIG       0.09000
     30 H30         7.5078    6.4540   30.1200 H      1 LIG       0.19600
     31 H31         8.2960    7.5660   32.1966 H      1 LIG       0.20100
     32 H32         7.5370    8.1220   34.9186 H      1 LIG       0.18300
     33 H33         5.3319    7.4731   36.2841 H      1 LIG       0.19900
     34 H34         3.7592    6.1232   34.7424 H      1 LIG       0.36100
     35 H35         3.8579    5.2587   32.1552 H      1 LIG       0.19500
@<TRIPOS>BOND
      1       1       2 1
      2       2       3 1
      3       3       4 1
      4       4       5 1
      5       5       6 1
      6       6       7 1
      7       2       7 1
      8       5       8 am
      9       8       9 2
     10       8      10 1
     11      10      11 ar
     12      11      12 ar
     13      12      13 ar
     14      13      14 ar
     15      14      15 ar
     16      15      16 ar
     17      16      17 ar
     18      13      17 ar
     19      17      18 ar
     20      10      18 ar
     21       1      19 1
     22       1      20 1
     23       1      21 1
     24       3      22 1
     25       3      23 1
     26       4      24 1
     27       4      25 1
     28       6      26 1
     29       6      27 1
     30       7      28 1
     31       7      29 1
     32      11      30 1
     33      12      31 1
     34      14      32 1
     35      15      33 1
     36      16      34 1
     37      18      35 1
@<TRIPOS>ALT_TYPE
CGenFF_4.0_ALT_TYPE_SET
CGenFF_4.0 1 CG331 2 NG301 3 CG321 4 CG321 5 NG2S0 6 CG321 7 CG321 8 CG2O1 9 OG2D1 10 CG2R61 11 CG2R61 12 CG2R61 13 CG2RC0 14 CG2R51 15 CG2R51 16 NG2R51 17 CG2RC0 18 CG2R61 19 HGA3 20 HGA3 21 HGA3 22 HGA2 23 HGA2 24 HGA2 25 HGA2 26 HGA2 27 HGA2 28 HGA2 29 HGA2 30 HGR61 31 HGR61 32 HGR51 33 HGR52 34 HGP1 35 HGR61
@<TRIPOS>MOLECULE
ZINC01501734$25
 35 37 0 0 0
****
USER_CHARGES
INVALID_CHARGES
Pose:   1 Cluster:   1 Fr_nu:   1949 TotEn:   -12.70
@<TRIPOS>ATOM
      1 C1          6.7375    5.9286   27.9247 C.3    1 LIG      -0.09400
      2 N2          5.8121    4.8863   27.4490 N.3    1 LIG      -0.71400
      3 C3          4.5304    4.8848   28.1876 C.3    1 LIG       0.08600
      4 C4          4.6649    4.2952   29.5979 C.3    1 LIG       0.02500
      5 N5          5.3322    2.9950   29.5241 N.am   1 LIG      -0.37100
      6 C6          6.6055    2.9279   28.8034 C.3    1 LIG       0.02500
      7 C7          6.4397    3.5475   27.4082 C.3    1 LIG       0.08600
      8 C8          4.6791    1.8032   30.0004 C.2    1 LIG       0.37400
      9 O9          3.4384    1.6652   29.8201 O.2    1 LIG      -0.44900
     10 C10         5.4318    0.7375   30.7025 C.ar   1 LIG      -0.09300
     11 C11         4.9523   -0.5998   30.6877 C.ar   1 LIG      -0.18800
     12 C12         5.6486   -1.6221   31.3572 C.ar   1 LIG      -0.24300
     13 C13         6.8121   -1.2781   32.0377 C.ar   1 LIG       0.09000
     14 C14         7.6833   -2.0509   32.7741 C.ar   1 LIG      -0.25800
     15 C15         8.6580   -1.1672   33.2266 C.ar   1 LIG      -0.11700
     16 N16         8.4051    0.0892   32.7940 N.ar   1 LIG      -0.49700
     17 C17         7.2775    0.0078   32.0692 C.ar   1 LIG       0.26500
     18 C18         6.6131    1.0451   31.4180 C.ar   1 LIG      -0.25200
     19 H19         7.0549    5.7540   28.9734 H      1 LIG       0.09000
     20 H20         6.2540    6.9265   27.8582 H      1 LIG       0.09000
     21 H21         7.6405    5.9587   27.2784 H      1 LIG       0.09000
     22 H22         3.7895    4.2820   27.6182 H      1 LIG       0.09000
     23 H23         4.1185    5.9158   28.2532 H      1 LIG       0.09000
     24 H24         3.6563    4.2050   30.0570 H      1 LIG       0.09000
     25 H25         5.2585    4.9766   30.2428 H      1 LIG       0.09000
     26 H26         7.3857    3.4722   29.3758 H      1 LIG       0.09000
     27 H27         6.9437    1.8755   28.6860 H      1 LIG       0.09000
     28 H28         5.8039    2.8739   26.7929 H      1 LIG       0.09000
     29 H29         7.4297    3.5977   26.9040 H      1 LIG       0.09000
     30 H30         4.0466   -0.8516   30.1502 H      1 LIG       0.19600
     31 H31         5.2888   -2.6431   31.3433 H      1 LIG       0.20100
     32 H32         7.6228   -3.1145   32.9633 H      1 LIG       0.18300
     33 H33         9.5070   -1.4338   33.8423 H      1 LIG       0.19900
     34 H34         8.9726    0.9444   32.9868 H      1 LIG       0.36100
     35 H35         6.9931    2.0566   31.4802 H      1 LIG       0.19500
@<TRIPOS>BOND
      1       1       2 1
      2       2       3 1
      3       3       4 1
      4       4       5 1
      5       5       6 1
      6       6       7 1
      7       2       7 1
      8       5       8 am
      9       8       9 2
     10       8      10 1
     11      10      11 ar
     12      11      12 ar
     13      12      13 ar
     14      13      14 ar
     15      14      15 ar
     16      15      16 ar
     17      16      17 ar
     18      13      17 ar
     19      17      18 ar
     20      10      18 ar
     21       1      19 1
     22       1      20 1
     23       1      21 1
     24       3      22 1
     25       3      23 1
     26       4      24 1
     27       4      25 1
     28       6      26 1
     29       6      27 1
     30       7      28 1
     31       7      29 1
     32      11      30 1
     33      12      31 1
     34      14      32 1
     35      15      33 1
     36      16      34 1
     37      18      35 1
@<TRIPOS>ALT_TYPE
CGenFF_4.0_ALT_TYPE_SET
CGenFF_4.0 1 CG331 2 NG301 3 CG321 4 CG321 5 NG2S0 6 CG321 7 CG321 8 CG2O1 9 OG2D1 10 CG2R61 11 CG2R61 12 CG2R61 13 CG2RC0 14 CG2R51 15 CG2R51 16 NG2R51 17 CG2RC0 18 CG2R61 19 HGA3 20 HGA3 21 HGA3 22 HGA2 23 HGA2 24 HGA2 25 HGA2 26 HGA2 27 HGA2 28 HGA2 29 HGA2 30 HGR61 31 HGR61 32 HGR51 33 HGR52 34 HGP1 35 HGR61
@<TRIPOS>MOLECULE
ZINC01501734$26
 35 37 0 0 0
****
USER_CHARGES
INVALID_CHARGES
Pose:   1 Cluster:   1 Fr_nu:   1557 TotEn:   -13.75
@<TRIPOS>ATOM
      1 C1          9.0167   11.2040   24.2954 C.3    1 LIG      -0.09400
      2 N2          8.5374    9.8161   24.3757 N.3    1 LIG      -0.71400
      3 C3          9.5910    8.9348   24.9019 C.3    1 LIG       0.08600
      4 C4          9.1641    7.4848   24.6817 C.3    1 LIG       0.02500
      5 N5          7.7634    7.2847   25.0744 N.am   1 LIG      -0.37100
      6 C6          7.0447    8.3430   25.7999 C.3    1 LIG       0.02500
      7 C7          7.2976    9.7381   25.1842 C.3    1 LIG       0.08600
      8 C8          7.1378    6.0155   24.7998 C.2    1 LIG       0.37400
      9 O9          7.4202    5.4064   23.7320 O.2    1 LIG      -0.44900
     10 C10         6.1717    5.4020   25.7382 C.ar   1 LIG      -0.09300
     11 C11         5.0822    4.6424   25.2362 C.ar   1 LIG      -0.18800
     12 C12         4.1601    4.0412   26.1119 C.ar   1 LIG      -0.24300
     13 C13         4.3593    4.2070   27.4789 C.ar   1 LIG       0.09000
     14 C14         3.6386    3.7366   28.5548 C.ar   1 LIG      -0.25800
     15 C15         4.3145    4.2050   29.6770 C.ar   1 LIG      -0.11700
     16 N16         5.3994    4.9286   29.3168 N.ar   1 LIG      -0.49700
     17 C17         5.4144    4.9235   27.9739 C.ar   1 LIG       0.26500
     18 C18         6.3465    5.5316   27.1355 C.ar   1 LIG      -0.25200
     19 H19         9.3497   11.5726   25.2914 H      1 LIG       0.09000
     20 H20         8.2095   11.8662   23.9139 H      1 LIG       0.09000
     21 H21         9.8654   11.2726   23.5814 H      1 LIG       0.09000
     22 H22        10.5506    9.1022   24.3635 H      1 LIG       0.09000
     23 H23         9.7622    9.1257   25.9863 H      1 LIG       0.09000
     24 H24         9.2812    7.2478   23.6015 H      1 LIG       0.09000
     25 H25         9.8195    6.8049   25.2672 H      1 LIG       0.09000
     26 H26         5.9502    8.1457   25.8072 H      1 LIG       0.09000
     27 H27         7.3940    8.3491   26.8549 H      1 LIG       0.09000
     28 H28         7.3067   10.4832   26.0131 H      1 LIG       0.09000
     29 H29         6.4406    9.9928   24.5238 H      1 LIG       0.09000
     30 H30         4.9421    4.5266   24.1686 H      1 LIG       0.19600
     31 H31         3.3245    3.4668   25.7330 H      1 LIG       0.20100
     32 H32         2.7427    3.1302   28.5339 H      1 LIG       0.18300
     33 H33         4.0255    4.0218   30.7034 H      1 LIG       0.19900
     34 H34         6.0826    5.3936   29.9552 H      1 LIG       0.36100
     35 H35         7.1889    6.0657   27.5549 H      1 LIG       0.19500
@<TRIPOS>BOND
      1       1       2 1
      2       2       3 1
      3       3       4 1
      4       4       5 1
      5       5       6 1
      6       6       7 1
      7       2       7 1
      8       5       8 am
      9       8       9 2
     10       8      10 1
     11      10      11 ar
     12      11      12 ar
     13      12      13 ar
     14      13      14 ar
     15      14      15 ar
     16      15      16 ar
     17      16      17 ar
     18      13      17 ar
     19      17      18 ar
     20      10      18 ar
     21       1      19 1
     22       1      20 1
     23       1      21 1
     24       3      22 1
     25       3      23 1
     26       4      24 1
     27       4      25 1
     28       6      26 1
     29       6      27 1
     30       7      28 1
     31       7      29 1
     32      11      30 1
     33      12      31 1
     34      14      32 1
     35      15      33 1
     36      16      34 1
     37      18      35 1
@<TRIPOS>ALT_TYPE
CGenFF_4.0_ALT_TYPE_SET
CGenFF_4.0 1 CG331 2 NG301 3 CG321 4 CG321 5 NG2S0 6 CG321 7 CG321 8 CG2O1 9 OG2D1 10 CG2R61 11 CG2R61 12 CG2R61 13 CG2RC0 14 CG2R51 15 CG2R51 16 NG2R51 17 CG2RC0 18 CG2R61 19 HGA3 20 HGA3 21 HGA3 22 HGA2 23 HGA2 24 HGA2 25 HGA2 26 HGA2 27 HGA2 28 HGA2 29 HGA2 30 HGR61 31 HGR61 32 HGR51 33 HGR52 34 HGP1 35 HGR61
@<TRIPOS>MOLECULE
ZINC01501734$27
 35 37 0 0 0
****
USER_CHARGES
INVALID_CHARGES
Pose:   1 Cluster:   1 Fr_nu:    611 TotEn:   -19.20
@<TRIPOS>ATOM
      1 C1          5.7003    4.7502   26.9813 C.3    1 LIG      -0.09400
      2 N2          6.1305    4.5382   28.3738 N.3    1 LIG      -0.71400
      3 C3          4.9950    4.5025   29.3199 C.3    1 LIG       0.08600
      4 C4          4.1920    3.1980   29.2275 C.3    1 LIG       0.02500
      5 N5          5.0978    2.0530   29.3167 N.am   1 LIG      -0.37100
      6 C6          6.2591    2.0328   28.4241 C.3    1 LIG       0.02500
      7 C7          7.0175    3.3645   28.5205 C.3    1 LIG       0.08600
      8 C8          4.6654    0.8493   29.9748 C.2    1 LIG       0.37400
      9 O9          3.4658    0.4775   29.8563 O.2    1 LIG      -0.44900
     10 C10         5.5967    0.0497   30.8033 C.ar   1 LIG      -0.09300
     11 C11         5.3464   -1.3308   31.0272 C.ar   1 LIG      -0.18800
     12 C12         6.2159   -2.1008   31.8206 C.ar   1 LIG      -0.24300
     13 C13         7.3186   -1.4646   32.3819 C.ar   1 LIG       0.09000
     14 C14         8.3206   -1.9526   33.1920 C.ar   1 LIG      -0.25800
     15 C15         9.1431   -0.8603   33.4493 C.ar   1 LIG      -0.11700
     16 N16         8.6760    0.2486   32.8312 N.ar   1 LIG      -0.49700
     17 C17         7.5637   -0.1336   32.1830 C.ar   1 LIG       0.26500
     18 C18         6.7235    0.6590   31.4040 C.ar   1 LIG      -0.25200
     19 H19         6.5876    4.8706   26.3239 H      1 LIG       0.09000
     20 H20         5.1062    5.6857   26.9044 H      1 LIG       0.09000
     21 H21         5.0882    3.9055   26.6033 H      1 LIG       0.09000
     22 H22         5.3880    4.6071   30.3550 H      1 LIG       0.09000
     23 H23         4.3187    5.3684   29.1474 H      1 LIG       0.09000
     24 H24         3.4513    3.1743   30.0570 H      1 LIG       0.09000
     25 H25         3.6319    3.1562   28.2695 H      1 LIG       0.09000
     26 H26         6.9518    1.2050   28.6863 H      1 LIG       0.09000
     27 H27         5.9191    1.8585   27.3815 H      1 LIG       0.09000
     28 H28         7.5215    3.4193   29.5099 H      1 LIG       0.09000
     29 H29         7.8231    3.3888   27.7543 H      1 LIG       0.09000
     30 H30         4.4852   -1.8115   30.5804 H      1 LIG       0.19600
     31 H31         6.0310   -3.1540   31.9890 H      1 LIG       0.20100
     32 H32         8.4419   -2.9652   33.5534 H      1 LIG       0.18300
     33 H33        10.0366   -0.8797   34.0593 H      1 LIG       0.19900
     34 H34         9.0968    1.2041   32.8558 H      1 LIG       0.36100
     35 H35         6.9311    1.7141   31.2816 H      1 LIG       0.19500
@<TRIPOS>BOND
      1       1       2 1
      2       2       3 1
      3       3       4 1
      4       4       5 1
      5       5       6 1
      6       6       7 1
      7       2       7 1
      8       5       8 am
      9       8       9 2
     10       8      10 1
     11      10      11 ar
     12      11      12 ar
     13      12      13 ar
     14      13      14 ar
     15      14      15 ar
     16      15      16 ar
     17      16      17 ar
     18      13      17 ar
     19      17      18 ar
     20      10      18 ar
     21       1      19 1
     22       1      20 1
     23       1      21 1
     24       3      22 1
     25       3      23 1
     26       4      24 1
     27       4      25 1
     28       6      26 1
     29       6      27 1
     30       7      28 1
     31       7      29 1
     32      11      30 1
     33      12      31 1
     34      14      32 1
     35      15      33 1
     36      16      34 1
     37      18      35 1
@<TRIPOS>ALT_TYPE
CGenFF_4.0_ALT_TYPE_SET
CGenFF_4.0 1 CG331 2 NG301 3 CG321 4 CG321 5 NG2S0 6 CG321 7 CG321 8 CG2O1 9 OG2D1 10 CG2R61 11 CG2R61 12 CG2R61 13 CG2RC0 14 CG2R51 15 CG2R51 16 NG2R51 17 CG2RC0 18 CG2R61 19 HGA3 20 HGA3 21 HGA3 22 HGA2 23 HGA2 24 HGA2 25 HGA2 26 HGA2 27 HGA2 28 HGA2 29 HGA2 30 HGR61 31 HGR61 32 HGR51 33 HGR52 34 HGP1 35 HGR61
@<TRIPOS>MOLECULE
ZINC01501734$28
 35 37 0 0 0
****
USER_CHARGES
INVALID_CHARGES
Pose:   1 Cluster:   1 Fr_nu:   2080 TotEn:   -12.19
@<TRIPOS>ATOM
      1 C1          8.9096    9.2099   21.2487 C.3    1 LIG      -0.09400
      2 N2          8.4008    7.9751   21.8647 N.3    1 LIG      -0.71400
      3 C3          7.4113    8.3058   22.9113 C.3    1 LIG       0.08600
      4 C4          6.8316    7.0253   23.5204 C.3    1 LIG       0.02500
      5 N5          7.9273    6.1622   23.9721 N.am   1 LIG      -0.37100
      6 C6          9.0041    5.8827   23.0193 C.3    1 LIG       0.02500
      7 C7          9.5204    7.1997   22.4366 C.3    1 LIG       0.08600
      8 C8          8.0416    5.7634   25.3502 C.2    1 LIG       0.37400
      9 O9          9.1569    5.8645   25.9302 O.2    1 LIG      -0.44900
     10 C10         6.8759    5.2402   26.1013 C.ar   1 LIG      -0.09300
     11 C11         5.7908    4.6285   25.4176 C.ar   1 LIG      -0.18800
     12 C12         4.6827    4.1280   26.1248 C.ar   1 LIG      -0.24300
     13 C13         4.6920    4.2414   27.5112 C.ar   1 LIG       0.09000
     14 C14         3.7653    3.8442   28.4500 C.ar   1 LIG      -0.25800
     15 C15         4.3145    4.2050   29.6770 C.ar   1 LIG      -0.11700
     16 N16         5.5195    4.7964   29.5083 N.ar   1 LIG      -0.49700
     17 C17         5.7387    4.8119   28.1832 C.ar   1 LIG       0.26500
     18 C18         6.8502    5.3206   27.5140 C.ar   1 LIG      -0.25200
     19 H19         8.0735    9.7792   20.7880 H      1 LIG       0.09000
     20 H20         9.6246    8.9644   20.4344 H      1 LIG       0.09000
     21 H21         9.4199    9.8552   21.9982 H      1 LIG       0.09000
     22 H22         7.8770    8.9188   23.7173 H      1 LIG       0.09000
     23 H23         6.5739    8.8902   22.4708 H      1 LIG       0.09000
     24 H24         6.1598    7.2977   24.3637 H      1 LIG       0.09000
     25 H25         6.2324    6.4877   22.7538 H      1 LIG       0.09000
     26 H26         9.8402    5.3321   23.5025 H      1 LIG       0.09000
     27 H27         8.6061    5.2477   22.1979 H      1 LIG       0.09000
     28 H28        10.0364    7.7786   23.2364 H      1 LIG       0.09000
     29 H29        10.2632    6.9611   21.6428 H      1 LIG       0.09000
     30 H30         5.8075    4.5241   24.3408 H      1 LIG       0.19600
     31 H31         3.8544    3.6629   25.6063 H      1 LIG       0.20100
     32 H32         2.8151    3.3567   28.2733 H      1 LIG       0.18300
     33 H33         3.8520    4.0419   30.6415 H      1 LIG       0.19900
     34 H34         6.1479    5.1629   30.2578 H      1 LIG       0.36100
     35 H35         7.6624    5.7718   28.0710 H      1 LIG       0.19500
@<TRIPOS>BOND
      1       1       2 1
      2       2       3 1
      3       3       4 1
      4       4       5 1
      5       5       6 1
      6       6       7 1
      7       2       7 1
      8       5       8 am
      9       8       9 2
     10       8      10 1
     11      10      11 ar
     12      11      12 ar
     13      12      13 ar
     14      13      14 ar
     15      14      15 ar
     16      15      16 ar
     17      16      17 ar
     18      13      17 ar
     19      17      18 ar
     20      10      18 ar
     21       1      19 1
     22       1      20 1
     23       1      21 1
     24       3      22 1
     25       3      23 1
     26       4      24 1
     27       4      25 1
     28       6      26 1
     29       6      27 1
     30       7      28 1
     31       7      29 1
     32      11      30 1
     33      12      31 1
     34      14      32 1
     35      15      33 1
     36      16      34 1
     37      18      35 1
@<TRIPOS>ALT_TYPE
CGenFF_4.0_ALT_TYPE_SET
CGenFF_4.0 1 CG331 2 NG301 3 CG321 4 CG321 5 NG2S0 6 CG321 7 CG321 8 CG2O1 9 OG2D1 10 CG2R61 11 CG2R61 12 CG2R61 13 CG2RC0 14 CG2R51 15 CG2R51 16 NG2R51 17 CG2RC0 18 CG2R61 19 HGA3 20 HGA3 21 HGA3 22 HGA2 23 HGA2 24 HGA2 25 HGA2 26 HGA2 27 HGA2 28 HGA2 29 HGA2 30 HGR61 31 HGR61 32 HGR51 33 HGR52 34 HGP1 35 HGR61
@<TRIPOS>MOLECULE
ZINC01501734$29
 35 37 0 0 0
****
USER_CHARGES
INVALID_CHARGES
Pose:   1 Cluster:   1 Fr_nu:   1315 TotEn:   -13.93
@<TRIPOS>ATOM
      1 C1          6.2444    9.3475   34.5302 C.3    1 LIG      -0.09400
      2 N2          6.2244    8.2095   33.5992 N.3    1 LIG      -0.71400
      3 C3          6.9196    7.0417   34.1923 C.3    1 LIG       0.08600
      4 C4          6.5161    5.7033   33.5380 C.3    1 LIG       0.02500
      5 N5          5.9547    5.9219   32.1998 N.am   1 LIG      -0.37100
      6 C6          4.8705    6.9018   32.0357 C.3    1 LIG       0.02500
      7 C7          4.8408    7.8802   33.2145 C.3    1 LIG       0.08600
      8 C8          6.5551    5.3012   31.0464 C.2    1 LIG       0.37400
      9 O9          7.8038    5.1266   31.0145 O.2    1 LIG      -0.44900
     10 C10         5.7420    4.8814   29.8847 C.ar   1 LIG      -0.09300
     11 C11         4.4450    4.3354   30.0722 C.ar   1 LIG      -0.18800
     12 C12         3.6717    3.9246   28.9716 C.ar   1 LIG      -0.24300
     13 C13         4.2243    4.0613   27.7019 C.ar   1 LIG       0.09000
     14 C14         3.7136    3.7462   26.4617 C.ar   1 LIG      -0.25800
     15 C15         4.7140    4.0923   25.5588 C.ar   1 LIG      -0.11700
     16 N16         5.7909    4.5955   26.2048 N.ar   1 LIG      -0.49700
     17 C17         5.4798    4.5709   27.5110 C.ar   1 LIG       0.26500
     18 C18         6.2730    4.9869   28.5787 C.ar   1 LIG      -0.25200
     19 H19         7.2894    9.5776   34.8311 H      1 LIG       0.09000
     20 H20         5.6422    9.1328   35.4412 H      1 LIG       0.09000
     21 H21         5.8370   10.2532   34.0320 H      1 LIG       0.09000
     22 H22         6.7241    6.9670   35.2868 H      1 LIG       0.09000
     23 H23         8.0138    7.1843   34.0580 H      1 LIG       0.09000
     24 H24         5.7398    5.2129   34.1651 H      1 LIG       0.09000
     25 H25         7.3898    5.0163   33.5093 H      1 LIG       0.09000
     26 H26         3.8919    6.3848   31.9590 H      1 LIG       0.09000
     27 H27         5.0381    7.4842   31.1026 H      1 LIG       0.09000
     28 H28         4.2926    7.4274   34.0724 H      1 LIG       0.09000
     29 H29         4.2910    8.7949   32.8981 H      1 LIG       0.09000
     30 H30         4.0437    4.2050   31.0688 H      1 LIG       0.19600
     31 H31         2.6827    3.5072   29.1101 H      1 LIG       0.20100
     32 H32         2.7450    3.3200   26.2365 H      1 LIG       0.18300
     33 H33         4.6538    3.9791   24.4845 H      1 LIG       0.19900
     34 H34         6.6800    4.9319   25.7726 H      1 LIG       0.36100
     35 H35         7.2627    5.3895   28.4014 H      1 LIG       0.19500
@<TRIPOS>BOND
      1       1       2 1
      2       2       3 1
      3       3       4 1
      4       4       5 1
      5       5       6 1
      6       6       7 1
      7       2       7 1
      8       5       8 am
      9       8       9 2
     10       8      10 1
     11      10      11 ar
     12      11      12 ar
     13      12      13 ar
     14      13      14 ar
     15      14      15 ar
     16      15      16 ar
     17      16      17 ar
     18      13      17 ar
     19      17      18 ar
     20      10      18 ar
     21       1      19 1
     22       1      20 1
     23       1      21 1
     24       3      22 1
     25       3      23 1
     26       4      24 1
     27       4      25 1
     28       6      26 1
     29       6      27 1
     30       7      28 1
     31       7      29 1
     32      11      30 1
     33      12      31 1
     34      14      32 1
     35      15      33 1
     36      16      34 1
     37      18      35 1
@<TRIPOS>ALT_TYPE
CGenFF_4.0_ALT_TYPE_SET
CGenFF_4.0 1 CG331 2 NG301 3 CG321 4 CG321 5 NG2S0 6 CG321 7 CG321 8 CG2O1 9 OG2D1 10 CG2R61 11 CG2R61 12 CG2R61 13 CG2RC0 14 CG2R51 15 CG2R51 16 NG2R51 17 CG2RC0 18 CG2R61 19 HGA3 20 HGA3 21 HGA3 22 HGA2 23 HGA2 24 HGA2 25 HGA2 26 HGA2 27 HGA2 28 HGA2 29 HGA2 30 HGR61 31 HGR61 32 HGR51 33 HGR52 34 HGP1 35 HGR61
@<TRIPOS>MOLECULE
ZINC01501734$30
 35 37 0 0 0
****
USER_CHARGES
INVALID_CHARGES
Pose:   1 Cluster:   1 Fr_nu:   1481 TotEn:   -15.57
@<TRIPOS>ATOM
      1 C1          7.0701    5.3516   28.3675 C.3    1 LIG      -0.09400
      2 N2          5.8144    5.6335   29.0848 N.3    1 LIG      -0.71400
      3 C3          4.6378    5.1055   28.3635 C.3    1 LIG       0.08600
      4 C4          4.6134    3.5686   28.3582 C.3    1 LIG       0.02500
      5 N5          5.0428    3.0323   29.6532 N.am   1 LIG      -0.37100
      6 C6          5.0710    3.9258   30.8156 C.3    1 LIG       0.02500
      7 C7          5.8780    5.2023   30.5056 C.3    1 LIG       0.08600
      8 C8          5.1519    1.6069   29.8199 C.2    1 LIG       0.37400
      9 O9          4.3312    0.8517   29.2306 O.2    1 LIG      -0.44900
     10 C10         6.2220    1.0054   30.6485 C.ar   1 LIG      -0.09300
     11 C11         7.4625    1.6757   30.8240 C.ar   1 LIG      -0.18800
     12 C12         8.4868    1.1038   31.5993 C.ar   1 LIG      -0.24300
     13 C13         8.2478   -0.1389   32.1770 C.ar   1 LIG       0.09000
     14 C14         9.0506   -0.9298   32.9696 C.ar   1 LIG      -0.25800
     15 C15         8.2879   -2.0605   33.2443 C.ar   1 LIG      -0.11700
     16 N16         7.0743   -1.9765   32.6524 N.ar   1 LIG      -0.49700
     17 C17         7.0627   -0.8002   32.0044 C.ar   1 LIG       0.26500
     18 C18         6.0264   -0.2631   31.2430 C.ar   1 LIG      -0.25200
     19 H19         7.8998    5.9344   28.8212 H      1 LIG       0.09000
     20 H20         7.3272    4.2712   28.4112 H      1 LIG       0.09000
     21 H21         6.9918    5.6660   27.3046 H      1 LIG       0.09000
     22 H22         3.7142    5.4845   28.8537 H      1 LIG       0.09000
     23 H23         4.6187    5.4862   27.3188 H      1 LIG       0.09000
     24 H24         3.5857    3.2160   28.1241 H      1 LIG       0.09000
     25 H25         5.2967    3.1965   27.5642 H      1 LIG       0.09000
     26 H26         4.0258    4.2050   31.0720 H      1 LIG       0.09000
     27 H27         5.4992    3.4228   31.7089 H      1 LIG       0.09000
     28 H28         5.4829    6.0262   31.1372 H      1 LIG       0.09000
     29 H29         6.9305    5.0478   30.8354 H      1 LIG       0.09000
     30 H30         7.6420    2.6316   30.3506 H      1 LIG       0.19600
     31 H31         9.4325    1.6126   31.7356 H      1 LIG       0.20100
     32 H32        10.0572   -0.7195   33.3059 H      1 LIG       0.18300
     33 H33         8.6082   -2.9004   33.8466 H      1 LIG       0.19900
     34 H34         6.3072   -2.6839   32.6929 H      1 LIG       0.36100
     35 H35         5.0973   -0.8069   31.1249 H      1 LIG       0.19500
@<TRIPOS>BOND
      1       1       2 1
      2       2       3 1
      3       3       4 1
      4       4       5 1
      5       5       6 1
      6       6       7 1
      7       2       7 1
      8       5       8 am
      9       8       9 2
     10       8      10 1
     11      10      11 ar
     12      11      12 ar
     13      12      13 ar
     14      13      14 ar
     15      14      15 ar
     16      15      16 ar
     17      16      17 ar
     18      13      17 ar
     19      17      18 ar
     20      10      18 ar
     21       1      19 1
     22       1      20 1
     23       1      21 1
     24       3      22 1
     25       3      23 1
     26       4      24 1
     27       4      25 1
     28       6      26 1
     29       6      27 1
     30       7      28 1
     31       7      29 1
     32      11      30 1
     33      12      31 1
     34      14      32 1
     35      15      33 1
     36      16      34 1
     37      18      35 1
@<TRIPOS>ALT_TYPE
CGenFF_4.0_ALT_TYPE_SET
CGenFF_4.0 1 CG331 2 NG301 3 CG321 4 CG321 5 NG2S0 6 CG321 7 CG321 8 CG2O1 9 OG2D1 10 CG2R61 11 CG2R61 12 CG2R61 13 CG2RC0 14 CG2R51 15 CG2R51 16 NG2R51 17 CG2RC0 18 CG2R61 19 HGA3 20 HGA3 21 HGA3 22 HGA2 23 HGA2 24 HGA2 25 HGA2 26 HGA2 27 HGA2 28 HGA2 29 HGA2 30 HGR61 31 HGR61 32 HGR51 33 HGR52 34 HGP1 35 HGR61
@<TRIPOS>MOLECULE
ZINC01501734$31
 35 37 0 0 0
****
USER_CHARGES
INVALID_CHARGES
Pose:   1 Cluster:   1 Fr_nu:   1344 TotEn:   -12.80
@<TRIPOS>ATOM
      1 C1          5.7068    5.9991   29.0115 C.3    1 LIG      -0.09400
      2 N2          5.6144    4.5616   29.3058 N.3    1 LIG      -0.71400
      3 C3          4.2366    4.2050   29.7220 C.3    1 LIG       0.08600
      4 C4          3.9313    2.6988   29.5728 C.3    1 LIG       0.02500
      5 N5          5.1704    1.9179   29.5206 N.am   1 LIG      -0.37100
      6 C6          6.2287    2.3086   28.5799 C.3    1 LIG       0.02500
      7 C7          6.0530    3.7667   28.1454 C.3    1 LIG       0.08600
      8 C8          5.2591    0.6696   30.2254 C.2    1 LIG       0.37400
      9 O9          4.3117   -0.1578   30.1345 O.2    1 LIG      -0.44900
     10 C10         6.4307    0.3485   31.0706 C.ar   1 LIG      -0.09300
     11 C11         6.7776   -1.0053   31.3244 C.ar   1 LIG      -0.18800
     12 C12         7.8794   -1.3255   32.1380 C.ar   1 LIG      -0.24300
     13 C13         8.6070   -0.2756   32.6894 C.ar   1 LIG       0.09000
     14 C14         9.7105   -0.2838   33.5144 C.ar   1 LIG      -0.25800
     15 C15         9.9965    1.0570   33.7510 C.ar   1 LIG      -0.11700
     16 N16         9.1161    1.8568   33.1066 N.ar   1 LIG      -0.49700
     17 C17         8.2747    1.0319   32.4621 C.ar   1 LIG       0.26500
     18 C18         7.1900    1.3850   31.6624 C.ar   1 LIG      -0.25200
     19 H19         5.0971    6.2675   28.1200 H      1 LIG       0.09000
     20 H20         6.7651    6.2815   28.8249 H      1 LIG       0.09000
     21 H21         5.3556    6.5918   29.8838 H      1 LIG       0.09000
     22 H22         3.4777    4.7738   29.1367 H      1 LIG       0.09000
     23 H23         4.1129    4.4865   30.7903 H      1 LIG       0.09000
     24 H24         3.2837    2.3623   30.4125 H      1 LIG       0.09000
     25 H25         3.3704    2.5326   28.6273 H      1 LIG       0.09000
     26 H26         6.2041    1.6426   27.6908 H      1 LIG       0.09000
     27 H27         7.2231    2.2039   29.0620 H      1 LIG       0.09000
     28 H28         7.0280    4.1382   27.7580 H      1 LIG       0.09000
     29 H29         5.3062    3.8316   27.3209 H      1 LIG       0.09000
     30 H30         6.2015   -1.8104   30.8852 H      1 LIG       0.19600
     31 H31         8.1502   -2.3559   32.3292 H      1 LIG       0.20100
     32 H32        10.2400   -1.1456   33.8987 H      1 LIG       0.18300
     33 H33        10.8077    1.4250   34.3652 H      1 LIG       0.19900
     34 H34         9.0976    2.9009   33.1121 H      1 LIG       0.36100
     35 H35         6.9374    2.4282   31.5169 H      1 LIG       0.19500
@<TRIPOS>BOND
      1       1       2 1
      2       2       3 1
      3       3       4 1
      4       4       5 1
      5       5       6 1
      6       6       7 1
      7       2       7 1
      8       5       8 am
      9       8       9 2
     10       8      10 1
     11      10      11 ar
     12      11      12 ar
     13      12      13 ar
     14      13      14 ar
     15      14      15 ar
     16      15      16 ar
     17      16      17 ar
     18      13      17 ar
     19      17      18 ar
     20      10      18 ar
     21       1      19 1
     22       1      20 1
     23       1      21 1
     24       3      22 1
     25       3      23 1
     26       4      24 1
     27       4      25 1
     28       6      26 1
     29       6      27 1
     30       7      28 1
     31       7      29 1
     32      11      30 1
     33      12      31 1
     34      14      32 1
     35      15      33 1
     36      16      34 1
     37      18      35 1
@<TRIPOS>ALT_TYPE
CGenFF_4.0_ALT_TYPE_SET
CGenFF_4.0 1 CG331 2 NG301 3 CG321 4 CG321 5 NG2S0 6 CG321 7 CG321 8 CG2O1 9 OG2D1 10 CG2R61 11 CG2R61 12 CG2R61 13 CG2RC0 14 CG2R51 15 CG2R51 16 NG2R51 17 CG2RC0 18 CG2R61 19 HGA3 20 HGA3 21 HGA3 22 HGA2 23 HGA2 24 HGA2 25 HGA2 26 HGA2 27 HGA2 28 HGA2 29 HGA2 30 HGR61 31 HGR61 32 HGR51 33 HGR52 34 HGP1 35 HGR61
@<TRIPOS>MOLECULE
ZINC01501734$32
 35 37 0 0 0
****
USER_CHARGES
INVALID_CHARGES
Pose:   1 Cluster:   1 Fr_nu:   1043 TotEn:   -13.87
@<TRIPOS>ATOM
      1 C1          7.6285   10.0662   22.4307 C.3    1 LIG      -0.09400
      2 N2          7.8315    8.7958   23.1431 N.3    1 LIG      -0.71400
      3 C3          7.0724    8.8030   24.4108 C.3    1 LIG       0.08600
      4 C4          7.3241    7.5080   25.1882 C.3    1 LIG       0.02500
      5 N5          7.0419    6.3590   24.3222 N.am   1 LIG      -0.37100
      6 C6          7.6758    6.3395   23.0015 C.3    1 LIG       0.02500
      7 C7          7.4062    7.6670   22.2900 C.3    1 LIG       0.08600
      8 C8          6.0413    5.3853   24.6745 C.2    1 LIG       0.37400
      9 O9          5.2254    4.9928   23.7963 O.2    1 LIG      -0.44900
     10 C10         5.9511    4.8312   26.0457 C.ar   1 LIG      -0.09300
     11 C11         7.1024    4.7652   26.8760 C.ar   1 LIG      -0.18800
     12 C12         7.0239    4.2313   28.1747 C.ar   1 LIG      -0.24300
     13 C13         5.7887    3.7643   28.6120 C.ar   1 LIG       0.09000
     14 C14         5.4168    3.1969   29.8111 C.ar   1 LIG      -0.25800
     15 C15         4.0594    2.9224   29.6770 C.ar   1 LIG      -0.11700
     16 N16         3.6117    3.2992   28.4573 N.ar   1 LIG      -0.49700
     17 C17         4.6760    3.8108   27.8176 C.ar   1 LIG       0.26500
     18 C18         4.7174    4.3329   26.5263 C.ar   1 LIG      -0.25200
     19 H19         6.5557   10.2214   22.1774 H      1 LIG       0.09000
     20 H20         7.9795   10.9154   23.0557 H      1 LIG       0.09000
     21 H21         8.2270   10.0792   21.4944 H      1 LIG       0.09000
     22 H22         5.9800    8.9099   24.2178 H      1 LIG       0.09000
     23 H23         7.3987    9.6570   25.0446 H      1 LIG       0.09000
     24 H24         6.6793    7.4988   26.0938 H      1 LIG       0.09000
     25 H25         8.3865    7.4713   25.5127 H      1 LIG       0.09000
     26 H26         7.2983    5.4974   22.3816 H      1 LIG       0.09000
     27 H27         8.7720    6.2050   23.1271 H      1 LIG       0.09000
     28 H28         7.9802    7.6728   21.3371 H      1 LIG       0.09000
     29 H29         6.3216    7.7407   22.0449 H      1 LIG       0.09000
     30 H30         8.0620    5.1109   26.5143 H      1 LIG       0.19600
     31 H31         7.8991    4.1799   28.8098 H      1 LIG       0.20100
     32 H32         6.0434    3.0042   30.6719 H      1 LIG       0.18300
     33 H33         3.4346    2.4693   30.4353 H      1 LIG       0.19900
     34 H34         2.6376    3.2085   28.0920 H      1 LIG       0.36100
     35 H35         3.8203    4.3605   25.9201 H      1 LIG       0.19500
@<TRIPOS>BOND
      1       1       2 1
      2       2       3 1
      3       3       4 1
      4       4       5 1
      5       5       6 1
      6       6       7 1
      7       2       7 1
      8       5       8 am
      9       8       9 2
     10       8      10 1
     11      10      11 ar
     12      11      12 ar
     13      12      13 ar
     14      13      14 ar
     15      14      15 ar
     16      15      16 ar
     17      16      17 ar
     18      13      17 ar
     19      17      18 ar
     20      10      18 ar
     21       1      19 1
     22       1      20 1
     23       1      21 1
     24       3      22 1
     25       3      23 1
     26       4      24 1
     27       4      25 1
     28       6      26 1
     29       6      27 1
     30       7      28 1
     31       7      29 1
     32      11      30 1
     33      12      31 1
     34      14      32 1
     35      15      33 1
     36      16      34 1
     37      18      35 1
@<TRIPOS>ALT_TYPE
CGenFF_4.0_ALT_TYPE_SET
CGenFF_4.0 1 CG331 2 NG301 3 CG321 4 CG321 5 NG2S0 6 CG321 7 CG321 8 CG2O1 9 OG2D1 10 CG2R61 11 CG2R61 12 CG2R61 13 CG2RC0 14 CG2R51 15 CG2R51 16 NG2R51 17 CG2RC0 18 CG2R61 19 HGA3 20 HGA3 21 HGA3 22 HGA2 23 HGA2 24 HGA2 25 HGA2 26 HGA2 27 HGA2 28 HGA2 29 HGA2 30 HGR61 31 HGR61 32 HGR51 33 HGR52 34 HGP1 35 HGR61
@<TRIPOS>MOLECULE
ZINC01511088
 18 18 0 0 0
****
USER_CHARGES
INVALID_CHARGES
Pose:   1 Cluster:   1 Fr_nu:  25488 TotEn:   -11.47
@<TRIPOS>ATOM
      1 C1          9.2467    2.9940   33.6465 C.3    1 LIG      -0.27100
      2 C2          8.1702    2.4825   32.7432 C.2    1 LIG       0.52800
      3 O3          8.0230    1.2375   32.6198 O.2    1 LIG      -0.52400
      4 N4          7.3230    3.4009   32.0323 N.am   1 LIG      -0.45900
      5 C5          6.2633    3.0178   31.1434 C.ar   1 LIG       0.30500
      6 N6          5.4850    3.9032   30.4886 N.ar   1 LIG      -0.55500
      7 C7          4.5545    3.2724   29.7069 C.ar   1 LIG       1.01700
      8 N8          4.5477    1.9104   29.7057 N.ar   1 LIG      -0.66100
      9 S9          5.7759    1.4787   30.7375 S.2    1 LIG       0.05200
     10 S10         3.3863    4.2050   28.7240 S.3    1 LIG      -0.09900
     11 C11         4.4816    4.2651   27.2728 C.3    1 LIG      -0.20100
     12 H12         9.0703    2.6271   34.6791 H      1 LIG       0.09000
     13 H13        10.2331    2.6270   33.2933 H      1 LIG       0.09000
     14 H14         9.2635    4.1038   33.6605 H      1 LIG       0.09000
     15 H15         7.4821    4.4249   32.1648 H      1 LIG       0.32800
     16 H16         3.9746    4.8226   26.4588 H      1 LIG       0.09000
     17 H17         5.4277    4.7856   27.5307 H      1 LIG       0.09000
     18 H18         4.7038    3.2362   26.9202 H      1 LIG       0.09000
@<TRIPOS>BOND
      1       1       2 1
      2       2       3 2
      3       2       4 am
      4       4       5 1
      5       5       6 ar
      6       6       7 ar
      7       7       8 ar
      8       8       9 ar
      9       5       9 ar
     10       7      10 1
     11      10      11 1
     12       1      12 1
     13       1      13 1
     14       1      14 1
     15       4      15 1
     16      11      16 1
     17      11      17 1
     18      11      18 1
@<TRIPOS>ALT_TYPE
CGenFF_4.0_ALT_TYPE_SET
CGenFF_4.0 1 CG331 2 CG2O1 3 OG2D1 4 NG2S1 5 CG2R53 6 NG2R50 7 CG2R53 8 NG2R50 9 SG2R50 10 SG311 11 CG331 12 HGA3 13 HGA3 14 HGA3 15 HGP1 16 HGA3 17 HGA3 18 HGA3
@<TRIPOS>MOLECULE
ZINC01511088$2
 18 18 0 0 0
****
USER_CHARGES
INVALID_CHARGES
Pose:   1 Cluster:   1 Fr_nu:  27677 TotEn:   -12.56
@<TRIPOS>ATOM
      1 C1          7.9481    6.2515   23.9064 C.3    1 LIG      -0.27100
      2 C2          8.4286    6.4885   25.3047 C.2    1 LIG       0.52800
      3 O3          9.5438    7.0532   25.4653 O.2    1 LIG      -0.52400
      4 N4          7.6628    6.1288   26.4692 N.am   1 LIG      -0.45900
      5 C5          6.4072    5.4304   26.5026 C.ar   1 LIG       0.30500
      6 N6          5.6706    5.2925   27.6245 N.ar   1 LIG      -0.55500
      7 C7          4.5482    4.5395   27.4055 C.ar   1 LIG       1.01700
      8 N8          4.3495    4.0508   26.1502 N.ar   1 LIG      -0.66100
      9 S9          5.6533    4.5938   25.2767 S.2    1 LIG       0.05200
     10 S10         3.3863    4.2050   28.7240 S.3    1 LIG      -0.09900
     11 C11         4.2404    2.6858   29.2452 C.3    1 LIG      -0.20100
     12 H12         8.6521    6.7021   23.1746 H      1 LIG       0.09000
     13 H13         7.8978    5.1627   23.7018 H      1 LIG       0.09000
     14 H14         6.9532    6.7217   23.7629 H      1 LIG       0.09000
     15 H15         8.0422    6.4382   27.3925 H      1 LIG       0.32800
     16 H16         3.6979    2.2414   30.1047 H      1 LIG       0.09000
     17 H17         5.2794    2.9207   29.5580 H      1 LIG       0.09000
     18 H18         4.2567    1.9525   28.4117 H      1 LIG       0.09000
@<TRIPOS>BOND
      1       1       2 1
      2       2       3 2
      3       2       4 am
      4       4       5 1
      5       5       6 ar
      6       6       7 ar
      7       7       8 ar
      8       8       9 ar
      9       5       9 ar
     10       7      10 1
     11      10      11 1
     12       1      12 1
     13       1      13 1
     14       1      14 1
     15       4      15 1
     16      11      16 1
     17      11      17 1
     18      11      18 1
@<TRIPOS>ALT_TYPE
CGenFF_4.0_ALT_TYPE_SET
CGenFF_4.0 1 CG331 2 CG2O1 3 OG2D1 4 NG2S1 5 CG2R53 6 NG2R50 7 CG2R53 8 NG2R50 9 SG2R50 10 SG311 11 CG331 12 HGA3 13 HGA3 14 HGA3 15 HGP1 16 HGA3 17 HGA3 18 HGA3
@<TRIPOS>MOLECULE
ZINC01511088$3
 18 18 0 0 0
****
USER_CHARGES
INVALID_CHARGES
Pose:   1 Cluster:   1 Fr_nu:   1017 TotEn:   -13.18
@<TRIPOS>ATOM
      1 C1         10.6921    1.1703   33.8605 C.3    1 LIG      -0.27100
      2 C2          9.4692    0.6804   33.1526 C.2    1 LIG       0.52800
      3 O3          8.9815   -0.4326   33.4846 O.2    1 LIG      -0.52400
      4 N4          8.8672    1.4708   32.1137 N.am   1 LIG      -0.45900
      5 C5          7.6966    1.0957   31.3730 C.ar   1 LIG       0.30500
      6 N6          7.1534    1.8594   30.4034 N.ar   1 LIG      -0.55500
      7 C7          6.0440    1.2684   29.8605 C.ar   1 LIG       1.01700
      8 N8          5.6698    0.0541   30.3512 N.ar   1 LIG      -0.66100
      9 S9          6.7890   -0.2912   31.5292 S.2    1 LIG       0.05200
     10 S10         5.1204    2.0618   28.5499 S.3    1 LIG      -0.09900
     11 C11         4.0194    2.9390   29.7020 C.3    1 LIG      -0.20100
     12 H12        11.0116    2.1588   33.4696 H      1 LIG       0.09000
     13 H13        10.4788    1.2681   34.9456 H      1 LIG       0.09000
     14 H14        11.5201    0.4452   33.7162 H      1 LIG       0.09000
     15 H15         9.3058    2.3877   31.8724 H      1 LIG       0.32800
     16 H16         3.4574    2.2095   30.3222 H      1 LIG       0.09000
     17 H17         3.2975    3.5484   29.1207 H      1 LIG       0.09000
     18 H18         4.6115    3.6110   30.3579 H      1 LIG       0.09000
@<TRIPOS>BOND
      1       1       2 1
      2       2       3 2
      3       2       4 am
      4       4       5 1
      5       5       6 ar
      6       6       7 ar
      7       7       8 ar
      8       8       9 ar
      9       5       9 ar
     10       7      10 1
     11      10      11 1
     12       1      12 1
     13       1      13 1
     14       1      14 1
     15       4      15 1
     16      11      16 1
     17      11      17 1
     18      11      18 1
@<TRIPOS>ALT_TYPE
CGenFF_4.0_ALT_TYPE_SET
CGenFF_4.0 1 CG331 2 CG2O1 3 OG2D1 4 NG2S1 5 CG2R53 6 NG2R50 7 CG2R53 8 NG2R50 9 SG2R50 10 SG311 11 CG331 12 HGA3 13 HGA3 14 HGA3 15 HGP1 16 HGA3 17 HGA3 18 HGA3
@<TRIPOS>MOLECULE
ZINC01511088$4
 18 18 0 0 0
****
USER_CHARGES
INVALID_CHARGES
Pose:   1 Cluster:   1 Fr_nu:  24886 TotEn:   -13.36
@<TRIPOS>ATOM
      1 C1          9.8123    3.5241   32.4768 C.3    1 LIG      -0.27100
      2 C2          8.5481    3.2763   31.7177 C.2    1 LIG       0.52800
      3 O3          7.4439    3.4974   32.2837 O.2    1 LIG      -0.52400
      4 N4          8.5955    2.7946   30.3653 N.am   1 LIG      -0.45900
      5 C5          7.4292    2.5330   29.5751 C.ar   1 LIG       0.30500
      6 N6          6.1553    2.6963   29.9877 N.ar   1 LIG      -0.55500
      7 C7          5.2685    2.3630   28.9995 C.ar   1 LIG       1.01700
      8 N8          5.7779    1.9359   27.8102 N.ar   1 LIG      -0.66100
      9 S9          7.4272    1.9823   28.0099 S.2    1 LIG       0.05200
     10 S10         3.5028    2.4817   29.2619 S.3    1 LIG      -0.09900
     11 C11         3.4184    4.2050   28.6857 C.3    1 LIG      -0.20100
     12 H12        10.7026    3.2879   31.8574 H      1 LIG       0.09000
     13 H13         9.8305    2.8870   33.3855 H      1 LIG       0.09000
     14 H14         9.8608    4.5911   32.7790 H      1 LIG       0.09000
     15 H15         9.5269    2.6234   29.9245 H      1 LIG       0.32800
     16 H16         4.0521    4.8528   29.3272 H      1 LIG       0.09000
     17 H17         2.3681    4.5564   28.7458 H      1 LIG       0.09000
     18 H18         3.7607    4.2718   27.6317 H      1 LIG       0.09000
@<TRIPOS>BOND
      1       1       2 1
      2       2       3 2
      3       2       4 am
      4       4       5 1
      5       5       6 ar
      6       6       7 ar
      7       7       8 ar
      8       8       9 ar
      9       5       9 ar
     10       7      10 1
     11      10      11 1
     12       1      12 1
     13       1      13 1
     14       1      14 1
     15       4      15 1
     16      11      16 1
     17      11      17 1
     18      11      18 1
@<TRIPOS>ALT_TYPE
CGenFF_4.0_ALT_TYPE_SET
CGenFF_4.0 1 CG331 2 CG2O1 3 OG2D1 4 NG2S1 5 CG2R53 6 NG2R50 7 CG2R53 8 NG2R50 9 SG2R50 10 SG311 11 CG331 12 HGA3 13 HGA3 14 HGA3 15 HGP1 16 HGA3 17 HGA3 18 HGA3
@<TRIPOS>MOLECULE
ZINC01511088$5
 18 18 0 0 0
****
USER_CHARGES
INVALID_CHARGES
Pose:   1 Cluster:   1 Fr_nu:  26598 TotEn:   -14.22
@<TRIPOS>ATOM
      1 C1          8.1765    6.8207   27.9214 C.3    1 LIG      -0.27100
      2 C2          9.2514    5.7883   28.0760 C.2    1 LIG       0.52800
      3 O3         10.4271    6.1733   28.3155 O.2    1 LIG      -0.52400
      4 N4          8.9919    4.3781   27.9642 N.am   1 LIG      -0.45900
      5 C5          7.7165    3.7800   27.6916 C.ar   1 LIG       0.30500
      6 N6          6.5644    4.4460   27.4737 N.ar   1 LIG      -0.55500
      7 C7          5.5265    3.5840   27.2430 C.ar   1 LIG       1.01700
      8 N8          5.7971    2.2490   27.2631 N.ar   1 LIG      -0.66100
      9 S9          7.4233    2.1495   27.5902 S.2    1 LIG       0.05200
     10 S10         3.8741    4.1904   26.9247 S.3    1 LIG      -0.09900
     11 C11         3.4184    4.2050   28.6857 C.3    1 LIG      -0.20100
     12 H12         7.3908    6.6662   28.6899 H      1 LIG       0.09000
     13 H13         8.5965    7.8407   28.0539 H      1 LIG       0.09000
     14 H14         7.7349    6.7571   26.9052 H      1 LIG       0.09000
     15 H15         9.8006    3.7298   28.0970 H      1 LIG       0.32800
     16 H16         2.3736    4.5633   28.7870 H      1 LIG       0.09000
     17 H17         4.0894    4.8885   29.2472 H      1 LIG       0.09000
     18 H18         3.4899    3.1801   29.1065 H      1 LIG       0.09000
@<TRIPOS>BOND
      1       1       2 1
      2       2       3 2
      3       2       4 am
      4       4       5 1
      5       5       6 ar
      6       6       7 ar
      7       7       8 ar
      8       8       9 ar
      9       5       9 ar
     10       7      10 1
     11      10      11 1
     12       1      12 1
     13       1      13 1
     14       1      14 1
     15       4      15 1
     16      11      16 1
     17      11      17 1
     18      11      18 1
@<TRIPOS>ALT_TYPE
CGenFF_4.0_ALT_TYPE_SET
CGenFF_4.0 1 CG331 2 CG2O1 3 OG2D1 4 NG2S1 5 CG2R53 6 NG2R50 7 CG2R53 8 NG2R50 9 SG2R50 10 SG311 11 CG331 12 HGA3 13 HGA3 14 HGA3 15 HGP1 16 HGA3 17 HGA3 18 HGA3
@<TRIPOS>MOLECULE
ZINC01511088$6
 18 18 0 0 0
****
USER_CHARGES
INVALID_CHARGES
Pose:   1 Cluster:   1 Fr_nu:  35288 TotEn:   -14.28
@<TRIPOS>ATOM
      1 C1          6.9067   -1.7671   32.0434 C.3    1 LIG      -0.27100
      2 C2          7.7568   -0.5788   32.3715 C.2    1 LIG       0.52800
      3 O3          8.8055   -0.7626   33.0458 O.2    1 LIG      -0.52400
      4 N4          7.4150    0.7630   31.9783 N.am   1 LIG      -0.45900
      5 C5          6.3047    1.1745   31.1637 C.ar   1 LIG       0.30500
      6 N6          5.9557    2.4664   30.9926 N.ar   1 LIG      -0.55500
      7 C7          4.9018    2.5971   30.1283 C.ar   1 LIG       1.01700
      8 N8          4.3873    1.4611   29.5819 N.ar   1 LIG      -0.66100
      9 S9          5.3077    0.2343   30.2187 S.2    1 LIG       0.05200
     10 S10         4.2279    4.2050   29.7270 S.3    1 LIG      -0.09900
     11 C11         5.3486    4.4485   28.3150 C.3    1 LIG      -0.20100
     12 H12         6.9085   -1.9444   30.9486 H      1 LIG       0.09000
     13 H13         5.8719   -1.6058   32.4106 H      1 LIG       0.09000
     14 H14         7.3099   -2.6780   32.5353 H      1 LIG       0.09000
     15 H15         8.0198    1.5286   32.3530 H      1 LIG       0.32800
     16 H16         5.1893    3.6507   27.5597 H      1 LIG       0.09000
     17 H17         5.1362    5.4326   27.8489 H      1 LIG       0.09000
     18 H18         6.4041    4.4336   28.6590 H      1 LIG       0.09000
@<TRIPOS>BOND
      1       1       2 1
      2       2       3 2
      3       2       4 am
      4       4       5 1
      5       5       6 ar
      6       6       7 ar
      7       7       8 ar
      8       8       9 ar
      9       5       9 ar
     10       7      10 1
     11      10      11 1
     12       1      12 1
     13       1      13 1
     14       1      14 1
     15       4      15 1
     16      11      16 1
     17      11      17 1
     18      11      18 1
@<TRIPOS>ALT_TYPE
CGenFF_4.0_ALT_TYPE_SET
CGenFF_4.0 1 CG331 2 CG2O1 3 OG2D1 4 NG2S1 5 CG2R53 6 NG2R50 7 CG2R53 8 NG2R50 9 SG2R50 10 SG311 11 CG331 12 HGA3 13 HGA3 14 HGA3 15 HGP1 16 HGA3 17 HGA3 18 HGA3
@<TRIPOS>MOLECULE
ZINC01511088$7
 18 18 0 0 0
****
USER_CHARGES
INVALID_CHARGES
Pose:   1 Cluster:   1 Fr_nu:  24921 TotEn:   -15.19
@<TRIPOS>ATOM
      1 C1          6.0093   -1.8763   31.4386 C.3    1 LIG      -0.27100
      2 C2          5.5521   -0.5577   30.9017 C.2    1 LIG       0.52800
      3 O3          4.4263   -0.4858   30.3396 O.2    1 LIG      -0.52400
      4 N4          6.3854    0.6055   31.0261 N.am   1 LIG      -0.45900
      5 C5          6.0166    1.9014   30.5383 C.ar   1 LIG       0.30500
      6 N6          4.8586    2.1986   29.9134 N.ar   1 LIG      -0.55500
      7 C7          4.8077    3.5225   29.5689 C.ar   1 LIG       1.01700
      8 N8          5.8769    4.3021   29.8941 N.ar   1 LIG      -0.66100
      9 S9          6.9416    3.2743   30.6505 S.2    1 LIG       0.05200
     10 S10         3.3863    4.2050   28.7240 S.3    1 LIG      -0.09900
     11 C11         4.0579    3.8531   27.0704 C.3    1 LIG      -0.20100
     12 H12         6.0605   -2.6160   30.6124 H      1 LIG       0.09000
     13 H13         5.2900   -2.2348   32.2044 H      1 LIG       0.09000
     14 H14         7.0133   -1.7912   31.9041 H      1 LIG       0.09000
     15 H15         7.3139    0.5115   31.4955 H      1 LIG       0.32800
     16 H16         5.0170    4.3930   26.9257 H      1 LIG       0.09000
     17 H17         3.3329    4.1961   26.3041 H      1 LIG       0.09000
     18 H18         4.2202    2.7616   26.9494 H      1 LIG       0.09000
@<TRIPOS>BOND
      1       1       2 1
      2       2       3 2
      3       2       4 am
      4       4       5 1
      5       5       6 ar
      6       6       7 ar
      7       7       8 ar
      8       8       9 ar
      9       5       9 ar
     10       7      10 1
     11      10      11 1
     12       1      12 1
     13       1      13 1
     14       1      14 1
     15       4      15 1
     16      11      16 1
     17      11      17 1
     18      11      18 1
@<TRIPOS>ALT_TYPE
CGenFF_4.0_ALT_TYPE_SET
CGenFF_4.0 1 CG331 2 CG2O1 3 OG2D1 4 NG2S1 5 CG2R53 6 NG2R50 7 CG2R53 8 NG2R50 9 SG2R50 10 SG311 11 CG331 12 HGA3 13 HGA3 14 HGA3 15 HGP1 16 HGA3 17 HGA3 18 HGA3
@<TRIPOS>MOLECULE
ZINC01511088$8
 18 18 0 0 0
****
USER_CHARGES
INVALID_CHARGES
Pose:   1 Cluster:   1 Fr_nu:  10900 TotEn:   -12.16
@<TRIPOS>ATOM
      1 C1          3.9012    2.8905   29.0956 C.3    1 LIG      -0.27100
      2 C2          4.5230    4.0778   29.7638 C.2    1 LIG       0.52800
      3 O3          4.3803    4.2050   31.0094 O.2    1 LIG      -0.52400
      4 N4          5.3006    5.0591   29.0539 N.am   1 LIG      -0.45900
      5 C5          5.5265    5.1284   27.6364 C.ar   1 LIG       0.30500
      6 N6          6.4237    5.9639   27.0732 N.ar   1 LIG      -0.55500
      7 C7          6.4075    5.8793   25.7067 C.ar   1 LIG       1.01700
      8 N8          5.5193    5.0190   25.1367 N.ar   1 LIG      -0.66100
      9 S9          4.7202    4.3295   26.4188 S.2    1 LIG       0.05200
     10 S10         7.5067    6.8736   24.7049 S.3    1 LIG      -0.09900
     11 C11         8.8253    5.6204   24.7058 C.3    1 LIG      -0.20100
     12 H12         3.0950    3.2203   28.4092 H      1 LIG       0.09000
     13 H13         4.6749    2.3190   28.5421 H      1 LIG       0.09000
     14 H14         3.4475    2.2152   29.8522 H      1 LIG       0.09000
     15 H15         5.7859    5.7805   29.6337 H      1 LIG       0.32800
     16 H16         8.4586    4.6808   24.2419 H      1 LIG       0.09000
     17 H17         9.1596    5.4196   25.7452 H      1 LIG       0.09000
     18 H18         9.6863    5.9996   24.1180 H      1 LIG       0.09000
@<TRIPOS>BOND
      1       1       2 1
      2       2       3 2
      3       2       4 am
      4       4       5 1
      5       5       6 ar
      6       6       7 ar
      7       7       8 ar
      8       8       9 ar
      9       5       9 ar
     10       7      10 1
     11      10      11 1
     12       1      12 1
     13       1      13 1
     14       1      14 1
     15       4      15 1
     16      11      16 1
     17      11      17 1
     18      11      18 1
@<TRIPOS>ALT_TYPE
CGenFF_4.0_ALT_TYPE_SET
CGenFF_4.0 1 CG331 2 CG2O1 3 OG2D1 4 NG2S1 5 CG2R53 6 NG2R50 7 CG2R53 8 NG2R50 9 SG2R50 10 SG311 11 CG331 12 HGA3 13 HGA3 14 HGA3 15 HGP1 16 HGA3 17 HGA3 18 HGA3
@<TRIPOS>MOLECULE
ZINC01511088$9
 18 18 0 0 0
****
USER_CHARGES
INVALID_CHARGES
Pose:   1 Cluster:   1 Fr_nu:  26339 TotEn:   -12.82
@<TRIPOS>ATOM
      1 C1          7.3499    3.6633   32.4693 C.3    1 LIG      -0.27100
      2 C2          8.6411    3.5478   31.7179 C.2    1 LIG       0.52800
      3 O3          9.7176    3.7830   32.3292 O.2    1 LIG      -0.52400
      4 N4          8.6978    3.1821   30.3281 N.am   1 LIG      -0.45900
      5 C5          7.5695    2.8796   29.4947 C.ar   1 LIG       0.30500
      6 N6          6.2799    2.8673   29.8886 N.ar   1 LIG      -0.55500
      7 C7          5.4459    2.5400   28.8539 C.ar   1 LIG       1.01700
      8 N8          6.0126    2.2846   27.6417 N.ar   1 LIG      -0.66100
      9 S9          7.6444    2.4836   27.8847 S.2    1 LIG       0.05200
     10 S10         3.6747    2.4493   29.0868 S.3    1 LIG      -0.09900
     11 C11         3.4184    4.2050   28.6857 C.3    1 LIG      -0.20100
     12 H12         6.7064    4.4353   31.9985 H      1 LIG       0.09000
     13 H13         7.5395    3.9639   33.5219 H      1 LIG       0.09000
     14 H14         6.8283    2.6838   32.4772 H      1 LIG       0.09000
     15 H15         9.6417    3.1361   29.8824 H      1 LIG       0.32800
     16 H16         3.7650    4.4144   27.6520 H      1 LIG       0.09000
     17 H17         2.3366    4.4391   28.7568 H      1 LIG       0.09000
     18 H18         3.9730    4.8448   29.4039 H      1 LIG       0.09000
@<TRIPOS>BOND
      1       1       2 1
      2       2       3 2
      3       2       4 am
      4       4       5 1
      5       5       6 ar
      6       6       7 ar
      7       7       8 ar
      8       8       9 ar
      9       5       9 ar
     10       7      10 1
     11      10      11 1
     12       1      12 1
     13       1      13 1
     14       1      14 1
     15       4      15 1
     16      11      16 1
     17      11      17 1
     18      11      18 1
@<TRIPOS>ALT_TYPE
CGenFF_4.0_ALT_TYPE_SET
CGenFF_4.0 1 CG331 2 CG2O1 3 OG2D1 4 NG2S1 5 CG2R53 6 NG2R50 7 CG2R53 8 NG2R50 9 SG2R50 10 SG311 11 CG331 12 HGA3 13 HGA3 14 HGA3 15 HGP1 16 HGA3 17 HGA3 18 HGA3
@<TRIPOS>MOLECULE
ZINC01511088$10
 17 17 0 0 0
****
USER_CHARGES
INVALID_CHARGES
Pose:   1 Cluster:   1 Fr_nu:    444 TotEn:   -11.44
@<TRIPOS>ATOM
      1 C1          6.2757    5.6888   22.8732 C.3    1 LIG      -0.26900
      2 C2          6.5275    5.4921   24.3303 C.2    1 LIG       1.16800
      3 O3          7.5940    5.9311   24.8371 O.2    1 LIG      -0.52300
      4 N4          5.5555    4.8083   25.1308 N.am   1 LIG      -0.72700
      5 C5          5.6552    4.5448   26.5349 C.ar   1 LIG       0.18600
      6 N6          4.7068    3.8943   27.2370 N.ar   1 LIG      -0.60700
      7 C7          5.0541    3.7773   28.5564 C.ar   1 LIG       1.14100
      8 N8          6.2453    4.3107   28.9471 N.ar   1 LIG      -0.66100
      9 S9          6.8961    4.9595   27.5629 S.2    1 LIG       0.05200
     10 S10         3.9794    2.9556   29.7270 S.3    1 LIG      -0.09900
     11 C11         4.7305    1.3231   29.4441 C.3    1 LIG      -0.20100
     12 H12         7.0799    5.1978   22.2862 H      1 LIG       0.09000
     13 H13         6.2628    6.7741   22.6403 H      1 LIG       0.09000
     14 H14         5.2985    5.2471   22.5846 H      1 LIG       0.09000
     15 H15         4.2219    0.5740   30.0850 H      1 LIG       0.09000
     16 H16         5.8088    1.3488   29.7069 H      1 LIG       0.09000
     17 H17         4.6108    1.0275   28.3807 H      1 LIG       0.09000
@<TRIPOS>BOND
      1       1       2 1
      2       2       3 2
      3       2       4 1
      4       4       5 1
      5       5       6 ar
      6       6       7 ar
      7       7       8 ar
      8       8       9 ar
      9       5       9 ar
     10       7      10 1
     11      10      11 1
     12       1      12 1
     13       1      13 1
     14       1      14 1
     15      11      15 1
     16      11      16 1
     17      11      17 1
@<TRIPOS>ALT_TYPE
CGenFF_4.0_ALT_TYPE_SET
CGenFF_4.0 1 CG331 2 CG2O1 3 OG2D1 4 NG2D1 5 CG2R53 6 NG2R50 7 CG2R53 8 NG2R50 9 SG2R50 10 SG311 11 CG331 12 HGA3 13 HGA3 14 HGA3 15 HGA3 16 HGA3 17 HGA3
@<TRIPOS>MOLECULE
ZINC01511088$11
 17 17 0 0 0
****
USER_CHARGES
INVALID_CHARGES
Pose:   1 Cluster:   1 Fr_nu:    742 TotEn:   -13.89
@<TRIPOS>ATOM
      1 C1          6.9164    6.5999   24.5328 C.3    1 LIG      -0.26900
      2 C2          6.1399    5.4013   24.0847 C.2    1 LIG       1.16800
      3 O3          6.0772    5.1488   22.8527 O.2    1 LIG      -0.52300
      4 N4          5.4626    4.5251   24.9978 N.am   1 LIG      -0.72700
      5 C5          5.3828    4.5966   26.4282 C.ar   1 LIG       0.18600
      6 N6          4.7083    3.6970   27.1718 N.ar   1 LIG      -0.60700
      7 C7          4.7854    3.9872   28.5077 C.ar   1 LIG       1.14100
      8 N8          5.4948    5.0901   28.8756 N.ar   1 LIG      -0.66100
      9 S9          6.0540    5.7277   27.4476 S.2    1 LIG       0.05200
     10 S10         3.9794    2.9556   29.7270 S.3    1 LIG      -0.09900
     11 C11         5.4279    1.8754   29.9370 C.3    1 LIG      -0.20100
     12 H12         6.2460    7.3087   25.0611 H      1 LIG       0.09000
     13 H13         7.3543    7.1263   23.6580 H      1 LIG       0.09000
     14 H14         7.7476    6.2850   25.1969 H      1 LIG       0.09000
     15 H15         5.1912    1.0931   30.6869 H      1 LIG       0.09000
     16 H16         5.6809    1.3854   28.9734 H      1 LIG       0.09000
     17 H17         6.2959    2.4672   30.2958 H      1 LIG       0.09000
@<TRIPOS>BOND
      1       1       2 1
      2       2       3 2
      3       2       4 1
      4       4       5 1
      5       5       6 ar
      6       6       7 ar
      7       7       8 ar
      8       8       9 ar
      9       5       9 ar
     10       7      10 1
     11      10      11 1
     12       1      12 1
     13       1      13 1
     14       1      14 1
     15      11      15 1
     16      11      16 1
     17      11      17 1
@<TRIPOS>ALT_TYPE
CGenFF_4.0_ALT_TYPE_SET
CGenFF_4.0 1 CG331 2 CG2O1 3 OG2D1 4 NG2D1 5 CG2R53 6 NG2R50 7 CG2R53 8 NG2R50 9 SG2R50 10 SG311 11 CG331 12 HGA3 13 HGA3 14 HGA3 15 HGA3 16 HGA3 17 HGA3
@<TRIPOS>MOLECULE
ZINC01511088$12
 17 17 0 0 0
****
USER_CHARGES
INVALID_CHARGES
Pose:   1 Cluster:   1 Fr_nu:  23494 TotEn:   -13.95
@<TRIPOS>ATOM
      1 C1          6.1969    4.2722   31.6239 C.3    1 LIG      -0.26900
      2 C2          4.8385    4.8153   31.3025 C.2    1 LIG       1.16800
      3 O3          4.1742    5.3738   32.2146 O.2    1 LIG      -0.52300
      4 N4          4.2659    4.7242   29.9906 N.am   1 LIG      -0.72700
      5 C5          4.8594    4.1264   28.8327 C.ar   1 LIG       0.18600
      6 N6          6.0680    3.5308   28.7871 N.ar   1 LIG      -0.60700
      7 C7          6.3420    3.0626   27.5303 C.ar   1 LIG       1.14100
      8 N8          5.4005    3.2557   26.5648 N.ar   1 LIG      -0.66100
      9 S9          4.1625    4.0580   27.3303 S.2    1 LIG       0.05200
     10 S10         7.8814    2.2255   27.1704 S.3    1 LIG      -0.09900
     11 C11         8.7494    3.7655   26.7415 C.3    1 LIG      -0.20100
     12 H12         6.2180    3.1776   31.4420 H      1 LIG       0.09000
     13 H13         6.9622    4.7759   30.9974 H      1 LIG       0.09000
     14 H14         6.4447    4.4536   32.6916 H      1 LIG       0.09000
     15 H15         9.7952    3.5260   26.4599 H      1 LIG       0.09000
     16 H16         8.2490    4.2585   25.8818 H      1 LIG       0.09000
     17 H17         8.7598    4.4525   27.6135 H      1 LIG       0.09000
@<TRIPOS>BOND
      1       1       2 1
      2       2       3 2
      3       2       4 1
      4       4       5 1
      5       5       6 ar
      6       6       7 ar
      7       7       8 ar
      8       8       9 ar
      9       5       9 ar
     10       7      10 1
     11      10      11 1
     12       1      12 1
     13       1      13 1
     14       1      14 1
     15      11      15 1
     16      11      16 1
     17      11      17 1
@<TRIPOS>ALT_TYPE
CGenFF_4.0_ALT_TYPE_SET
CGenFF_4.0 1 CG331 2 CG2O1 3 OG2D1 4 NG2D1 5 CG2R53 6 NG2R50 7 CG2R53 8 NG2R50 9 SG2R50 10 SG311 11 CG331 12 HGA3 13 HGA3 14 HGA3 15 HGA3 16 HGA3 17 HGA3
@<TRIPOS>MOLECULE
ZINC01511088$13
 17 17 0 0 0
****
USER_CHARGES
INVALID_CHARGES
Pose:   1 Cluster:   1 Fr_nu:  33090 TotEn:   -12.44
@<TRIPOS>ATOM
      1 C1          7.8394    7.1523   23.5633 C.3    1 LIG      -0.26900
      2 C2          6.8825    6.1668   24.1452 C.2    1 LIG       1.16800
      3 O3          6.3003    5.3487   23.3844 O.2    1 LIG      -0.52300
      4 N4          6.6400    6.1643   25.5574 N.am   1 LIG      -0.72700
      5 C5          5.7542    5.2841   26.2586 C.ar   1 LIG       0.18600
      6 N6          5.5664    5.3281   27.5921 N.ar   1 LIG      -0.60700
      7 C7          4.6701    4.3774   28.0021 C.ar   1 LIG       1.14100
      8 N8          4.1249    3.5694   27.0503 N.ar   1 LIG      -0.66100
      9 S9          4.8068    4.0738   25.6216 S.2    1 LIG       0.05200
     10 S10         4.2279    4.2050   29.7270 S.3    1 LIG      -0.09900
     11 C11         5.5597    3.0132   30.0669 C.3    1 LIG      -0.20100
     12 H12         7.3123    7.7925   22.8253 H      1 LIG       0.09000
     13 H13         8.6668    6.6137   23.0560 H      1 LIG       0.09000
     14 H14         8.2652    7.7977   24.3604 H      1 LIG       0.09000
     15 H15         5.5176    2.7176   31.1353 H      1 LIG       0.09000
     16 H16         5.4308    2.1078   29.4376 H      1 LIG       0.09000
     17 H17         6.5474    3.4761   29.8602 H      1 LIG       0.09000
@<TRIPOS>BOND
      1       1       2 1
      2       2       3 2
      3       2       4 1
      4       4       5 1
      5       5       6 ar
      6       6       7 ar
      7       7       8 ar
      8       8       9 ar
      9       5       9 ar
     10       7      10 1
     11      10      11 1
     12       1      12 1
     13       1      13 1
     14       1      14 1
     15      11      15 1
     16      11      16 1
     17      11      17 1
@<TRIPOS>ALT_TYPE
CGenFF_4.0_ALT_TYPE_SET
CGenFF_4.0 1 CG331 2 CG2O1 3 OG2D1 4 NG2D1 5 CG2R53 6 NG2R50 7 CG2R53 8 NG2R50 9 SG2R50 10 SG311 11 CG331 12 HGA3 13 HGA3 14 HGA3 15 HGA3 16 HGA3 17 HGA3
@<TRIPOS>MOLECULE
ZINC01511088$14
 17 17 0 0 0
****
USER_CHARGES
INVALID_CHARGES
Pose:   1 Cluster:   1 Fr_nu:  29018 TotEn:   -12.41
@<TRIPOS>ATOM
      1 C1          6.7209    5.8446   31.6926 C.3    1 LIG      -0.26900
      2 C2          5.3083    5.5435   32.0890 C.2    1 LIG       1.16800
      3 O3          4.9591    5.7259   33.2849 O.2    1 LIG      -0.52300
      4 N4          4.3369    5.0523   31.1552 N.am   1 LIG      -0.72700
      5 C5          4.5393    4.7877   29.7626 C.ar   1 LIG       0.18600
      6 N6          5.6912    4.9708   29.0866 N.ar   1 LIG      -0.60700
      7 C7          5.5539    4.6216   27.7704 C.ar   1 LIG       1.14100
      8 N8          4.3363    4.1675   27.3608 N.ar   1 LIG      -0.66100
      9 S9          3.3863    4.2050   28.7240 S.2    1 LIG       0.05200
     10 S10         6.9244    4.7584   26.6290 S.3    1 LIG      -0.09900
     11 C11         7.5239    3.0754   26.9707 C.3    1 LIG      -0.20100
     12 H12         6.7336    6.6354   30.9140 H      1 LIG       0.09000
     13 H13         7.3008    6.2071   32.5679 H      1 LIG       0.09000
     14 H14         7.2085    4.9250   31.3073 H      1 LIG       0.09000
     15 H15         7.7906    2.9764   28.0438 H      1 LIG       0.09000
     16 H16         6.7426    2.3317   26.7085 H      1 LIG       0.09000
     17 H17         8.4268    2.8804   26.3562 H      1 LIG       0.09000
@<TRIPOS>BOND
      1       1       2 1
      2       2       3 2
      3       2       4 1
      4       4       5 1
      5       5       6 ar
      6       6       7 ar
      7       7       8 ar
      8       8       9 ar
      9       5       9 ar
     10       7      10 1
     11      10      11 1
     12       1      12 1
     13       1      13 1
     14       1      14 1
     15      11      15 1
     16      11      16 1
     17      11      17 1
@<TRIPOS>ALT_TYPE
CGenFF_4.0_ALT_TYPE_SET
CGenFF_4.0 1 CG331 2 CG2O1 3 OG2D1 4 NG2D1 5 CG2R53 6 NG2R50 7 CG2R53 8 NG2R50 9 SG2R50 10 SG311 11 CG331 12 HGA3 13 HGA3 14 HGA3 15 HGA3 16 HGA3 17 HGA3
@<TRIPOS>MOLECULE
ZINC01511088$15
 17 17 0 0 0
****
USER_CHARGES
INVALID_CHARGES
Pose:   1 Cluster:   1 Fr_nu:  27715 TotEn:   -12.80
@<TRIPOS>ATOM
      1 C1          5.4956    6.9794   32.6682 C.3    1 LIG      -0.26900
      2 C2          5.7139    6.2318   31.3959 C.2    1 LIG       1.16800
      3 O3          6.8772    6.1287   30.9210 O.2    1 LIG      -0.52300
      4 N4          4.5938    5.6395   30.7298 N.am   1 LIG      -0.72700
      5 C5          4.6704    4.9008   29.5074 C.ar   1 LIG       0.18600
      6 N6          5.8004    4.6611   28.8115 N.ar   1 LIG      -0.60700
      7 C7          5.5393    3.9246   27.6874 C.ar   1 LIG       1.14100
      8 N8          4.2457    3.5662   27.4527 N.ar   1 LIG      -0.66100
      9 S9          3.3863    4.2050   28.7240 S.2    1 LIG       0.05200
     10 S10         6.8500    3.4518   26.5654 S.3    1 LIG      -0.09900
     11 C11         7.1940    1.8957   27.4425 C.3    1 LIG      -0.20100
     12 H12         4.8028    7.8272   32.4862 H      1 LIG       0.09000
     13 H13         6.4565    7.3766   33.0595 H      1 LIG       0.09000
     14 H14         5.0512    6.3007   33.4257 H      1 LIG       0.09000
     15 H15         7.4996    2.1074   28.4886 H      1 LIG       0.09000
     16 H16         8.0199    1.3639   26.9271 H      1 LIG       0.09000
     17 H17         6.2919    1.2487   27.4391 H      1 LIG       0.09000
@<TRIPOS>BOND
      1       1       2 1
      2       2       3 2
      3       2       4 1
      4       4       5 1
      5       5       6 ar
      6       6       7 ar
      7       7       8 ar
      8       8       9 ar
      9       5       9 ar
     10       7      10 1
     11      10      11 1
     12       1      12 1
     13       1      13 1
     14       1      14 1
     15      11      15 1
     16      11      16 1
     17      11      17 1
@<TRIPOS>ALT_TYPE
CGenFF_4.0_ALT_TYPE_SET
CGenFF_4.0 1 CG331 2 CG2O1 3 OG2D1 4 NG2D1 5 CG2R53 6 NG2R50 7 CG2R53 8 NG2R50 9 SG2R50 10 SG311 11 CG331 12 HGA3 13 HGA3 14 HGA3 15 HGA3 16 HGA3 17 HGA3
@<TRIPOS>MOLECULE
ZINC01511088$16
 17 17 0 0 0
****
USER_CHARGES
INVALID_CHARGES
Pose:   1 Cluster:   1 Fr_nu:    940 TotEn:   -12.83
@<TRIPOS>ATOM
      1 C1          6.8918    7.2093   24.4814 C.3    1 LIG      -0.26900
      2 C2          6.2019    5.9926   23.9486 C.2    1 LIG       1.16800
      3 O3          5.9069    5.9530   22.7251 O.2    1 LIG      -0.52300
      4 N4          5.8602    4.8671   24.7714 N.am   1 LIG      -0.72700
      5 C5          6.0865    4.6709   26.1740 C.ar   1 LIG       0.18600
      6 N6          5.7085    3.5555   26.8297 N.ar   1 LIG      -0.60700
      7 C7          6.0378    3.6145   28.1575 C.ar   1 LIG       1.14100
      8 N8          6.6714    4.7346   28.6030 N.ar   1 LIG      -0.66100
      9 S9          6.8203    5.6980   27.2582 S.2    1 LIG       0.05200
     10 S10         5.6524    2.2655   29.2676 S.3    1 LIG      -0.09900
     11 C11         4.0194    2.9390   29.7020 C.3    1 LIG      -0.20100
     12 H12         7.0532    7.9494   23.6687 H      1 LIG       0.09000
     13 H13         7.8828    6.9310   24.8955 H      1 LIG       0.09000
     14 H14         6.2658    7.6869   25.2630 H      1 LIG       0.09000
     15 H15         3.3865    3.0197   28.7935 H      1 LIG       0.09000
     16 H16         4.1319    3.9392   30.1704 H      1 LIG       0.09000
     17 H17         3.5263    2.2569   30.4244 H      1 LIG       0.09000
@<TRIPOS>BOND
      1       1       2 1
      2       2       3 2
      3       2       4 1
      4       4       5 1
      5       5       6 ar
      6       6       7 ar
      7       7       8 ar
      8       8       9 ar
      9       5       9 ar
     10       7      10 1
     11      10      11 1
     12       1      12 1
     13       1      13 1
     14       1      14 1
     15      11      15 1
     16      11      16 1
     17      11      17 1
@<TRIPOS>ALT_TYPE
CGenFF_4.0_ALT_TYPE_SET
CGenFF_4.0 1 CG331 2 CG2O1 3 OG2D1 4 NG2D1 5 CG2R53 6 NG2R50 7 CG2R53 8 NG2R50 9 SG2R50 10 SG311 11 CG331 12 HGA3 13 HGA3 14 HGA3 15 HGA3 16 HGA3 17 HGA3
@<TRIPOS>MOLECULE
ZINC01511088$17
 17 17 0 0 0
****
USER_CHARGES
INVALID_CHARGES
Pose:   1 Cluster:   1 Fr_nu:  27776 TotEn:   -13.54
@<TRIPOS>ATOM
      1 C1          5.1842    6.9267   32.8622 C.3    1 LIG      -0.26900
      2 C2          5.4424    5.8866   31.8245 C.2    1 LIG       1.16800
      3 O3          6.5586    5.3021   31.7975 O.2    1 LIG      -0.52300
      4 N4          4.4220    5.5649   30.8726 N.am   1 LIG      -0.72700
      5 C5          4.5537    4.5881   29.8363 C.ar   1 LIG       0.18600
      6 N6          5.6489    3.8341   29.6109 N.ar   1 LIG      -0.60700
      7 C7          5.4591    2.9969   28.5445 C.ar   1 LIG       1.14100
      8 N8          4.2556    3.0472   27.9075 N.ar   1 LIG      -0.66100
      9 S9          3.3863    4.2050   28.7240 S.2    1 LIG       0.05200
     10 S10         6.7451    1.8746   28.0085 S.3    1 LIG      -0.09900
     11 C11         7.4793    3.0825   26.8635 C.3    1 LIG      -0.20100
     12 H12         5.9208    7.7504   32.7558 H      1 LIG       0.09000
     13 H13         4.1606    7.3423   32.7494 H      1 LIG       0.09000
     14 H14         5.2808    6.4772   33.8726 H      1 LIG       0.09000
     15 H15         8.3544    2.6211   26.3619 H      1 LIG       0.09000
     16 H16         6.7367    3.3773   26.0927 H      1 LIG       0.09000
     17 H17         7.8168    3.9807   27.4219 H      1 LIG       0.09000
@<TRIPOS>BOND
      1       1       2 1
      2       2       3 2
      3       2       4 1
      4       4       5 1
      5       5       6 ar
      6       6       7 ar
      7       7       8 ar
      8       8       9 ar
      9       5       9 ar
     10       7      10 1
     11      10      11 1
     12       1      12 1
     13       1      13 1
     14       1      14 1
     15      11      15 1
     16      11      16 1
     17      11      17 1
@<TRIPOS>ALT_TYPE
CGenFF_4.0_ALT_TYPE_SET
CGenFF_4.0 1 CG331 2 CG2O1 3 OG2D1 4 NG2D1 5 CG2R53 6 NG2R50 7 CG2R53 8 NG2R50 9 SG2R50 10 SG311 11 CG331 12 HGA3 13 HGA3 14 HGA3 15 HGA3 16 HGA3 17 HGA3
@<TRIPOS>MOLECULE
ZINC01511088$18
 17 17 0 0 0
****
USER_CHARGES
INVALID_CHARGES
Pose:   1 Cluster:   1 Fr_nu:  26554 TotEn:   -11.19
@<TRIPOS>ATOM
      1 C1          3.5599    4.0313   28.3102 C.3    1 LIG      -0.26900
      2 C2          5.0166    4.1759   28.6272 C.2    1 LIG       1.16800
      3 O3          5.4717    3.6180   29.6598 O.2    1 LIG      -0.52300
      4 N4          5.8957    4.9773   27.8285 N.am   1 LIG      -0.72700
      5 C5          5.7619    5.2307   26.4261 C.ar   1 LIG       0.18600
      6 N6          6.4622    6.1777   25.7719 N.ar   1 LIG      -0.60700
      7 C7          6.2255    6.1318   24.4240 C.ar   1 LIG       1.14100
      8 N8          5.3794    5.1689   23.9624 N.ar   1 LIG      -0.66100
      9 S9          4.9053    4.3329   25.3176 S.2    1 LIG       0.05200
     10 S10         7.0107    7.2873   23.3065 S.3    1 LIG      -0.09900
     11 C11         8.4595    6.2202   23.0388 C.3    1 LIG      -0.20100
     12 H12         3.3594    3.0055   27.9369 H      1 LIG       0.09000
     13 H13         2.9621    4.2050   29.2296 H      1 LIG       0.09000
     14 H14         3.2359    4.7747   27.5542 H      1 LIG       0.09000
     15 H15         8.1435    5.2523   22.5965 H      1 LIG       0.09000
     16 H16         9.1571    6.7247   22.3393 H      1 LIG       0.09000
     17 H17         8.9828    6.0395   24.0011 H      1 LIG       0.09000
@<TRIPOS>BOND
      1       1       2 1
      2       2       3 2
      3       2       4 1
      4       4       5 1
      5       5       6 ar
      6       6       7 ar
      7       7       8 ar
      8       8       9 ar
      9       5       9 ar
     10       7      10 1
     11      10      11 1
     12       1      12 1
     13       1      13 1
     14       1      14 1
     15      11      15 1
     16      11      16 1
     17      11      17 1
@<TRIPOS>ALT_TYPE
CGenFF_4.0_ALT_TYPE_SET
CGenFF_4.0 1 CG331 2 CG2O1 3 OG2D1 4 NG2D1 5 CG2R53 6 NG2R50 7 CG2R53 8 NG2R50 9 SG2R50 10 SG311 11 CG331 12 HGA3 13 HGA3 14 HGA3 15 HGA3 16 HGA3 17 HGA3
@<TRIPOS>MOLECULE
ZINC01511088$19
 17 17 0 0 0
****
USER_CHARGES
INVALID_CHARGES
Pose:   1 Cluster:   1 Fr_nu:    969 TotEn:   -11.18
@<TRIPOS>ATOM
      1 C1          3.4217    2.5372   29.1487 C.3    1 LIG      -0.26900
      2 C2          4.7202    1.8047   29.0051 C.2    1 LIG       1.16800
      3 O3          4.9625    0.8412   29.7779 O.2    1 LIG      -0.52300
      4 N4          5.6677    2.1247   27.9790 N.am   1 LIG      -0.72700
      5 C5          5.8653    3.4135   27.3886 C.ar   1 LIG       0.18600
      6 N6          6.5866    3.6150   26.2686 N.ar   1 LIG      -0.60700
      7 C7          6.7087    4.9495   25.9868 C.ar   1 LIG       1.14100
      8 N8          6.1339    5.8336   26.8493 N.ar   1 LIG      -0.66100
      9 S9          5.4371    4.8897   28.0257 S.2    1 LIG       0.05200
     10 S10         7.6037    5.5127   24.5437 S.3    1 LIG      -0.09900
     11 C11         9.1932    5.6032   25.4237 C.3    1 LIG      -0.20100
     12 H12         2.5927    1.8052   29.2469 H      1 LIG       0.09000
     13 H13         3.2115    3.1641   28.2586 H      1 LIG       0.09000
     14 H14         3.4513    3.1743   30.0570 H      1 LIG       0.09000
     15 H15         9.4723    4.6007   25.8108 H      1 LIG       0.09000
     16 H16         9.9781    5.9483   24.7200 H      1 LIG       0.09000
     17 H17         9.1224    6.3236   26.2655 H      1 LIG       0.09000
@<TRIPOS>BOND
      1       1       2 1
      2       2       3 2
      3       2       4 1
      4       4       5 1
      5       5       6 ar
      6       6       7 ar
      7       7       8 ar
      8       8       9 ar
      9       5       9 ar
     10       7      10 1
     11      10      11 1
     12       1      12 1
     13       1      13 1
     14       1      14 1
     15      11      15 1
     16      11      16 1
     17      11      17 1
@<TRIPOS>ALT_TYPE
CGenFF_4.0_ALT_TYPE_SET
CGenFF_4.0 1 CG331 2 CG2O1 3 OG2D1 4 NG2D1 5 CG2R53 6 NG2R50 7 CG2R53 8 NG2R50 9 SG2R50 10 SG311 11 CG331 12 HGA3 13 HGA3 14 HGA3 15 HGA3 16 HGA3 17 HGA3
