# TRIPOS MOL2 file generated by SEED

@<TRIPOS>MOLECULE
polar_rec
1620 0 0 0 0
****
USER_CHARGES
INVALID_CHARGES

@<TRIPOS>ATOM
1     1       1.2545     9.8166    24.8475 ***** 1    ****  0.000
2     2       1.2151     9.8072    24.7793 ***** 1    ****  0.000
3     3       1.2992     9.8247    24.9125 ***** 1    ****  0.000
4     4       1.2383     9.9387    24.7477 ***** 1    ****  0.000
5     5       1.2080     9.6721    24.8018 ***** 1    ****  0.000
6     6       1.3489     9.8315    24.9740 ***** 1    ****  0.000
7     7       1.3416    10.0375    24.8502 ***** 1    ****  0.000
8     8       1.1923     9.9249    24.6456 ***** 1    ****  0.000
9     9       1.1617     9.6550    24.7003 ***** 1    ****  0.000
10    10      1.2921     9.6007    24.9388 ***** 1    ****  0.000
11    11      1.4033     9.8370    25.0314 ***** 1    ****  0.000
12    12      1.4266    10.0658    24.9376 ***** 1    ****  0.000
13    13      1.2932    10.0954    24.7038 ***** 1    ****  0.000
14    14      1.1623     9.9076    24.5593 ***** 1    ****  0.000
15    15      1.1324     9.6438    24.6128 ***** 1    ****  0.000
16    16      1.2261     9.5027    24.8241 ***** 1    ****  0.000
17    17      1.3727     9.5906    25.0340 ***** 1    ****  0.000
18    18      1.4620     9.8412    25.0846 ***** 1    ****  0.000
19    19      1.4948    10.0975    24.9840 ***** 1    ****  0.000
20    20      1.3624    10.1776    24.7320 ***** 1    ****  0.000
21    21      1.2050    10.0372    24.5247 ***** 1    ****  0.000
22    22      1.1148     9.7586    24.4836 ***** 1    ****  0.000
23    23      1.1447     9.5050    24.6327 ***** 1    ****  0.000
24    24      1.2771     9.4249    24.8847 ***** 1    ****  0.000
25    25      1.4345     9.5653    25.0919 ***** 1    ****  0.000
26    26      1.5247     9.8439    25.1331 ***** 1    ****  0.000
27    27      1.5743    10.0979    25.0498 ***** 1    ****  0.000
28    28      1.4712    10.2347    24.8243 ***** 1    ****  0.000
29    29      1.3209    10.2035    24.5863 ***** 1    ****  0.000
30    30      1.1810    10.0161    24.4266 ***** 1    ****  0.000
31    31      1.1049     9.7440    24.4063 ***** 1    ****  0.000
32    32      1.1216     9.4914    24.5331 ***** 1    ****  0.000
33    33      1.2247     9.3545    24.7585 ***** 1    ****  0.000
34    34      1.3749     9.3858    24.9965 ***** 1    ****  0.000
35    35      1.5148     9.5732    25.1562 ***** 1    ****  0.000
36    36      1.5910     9.8452    25.1766 ***** 1    ****  0.000
37    37      1.6521    10.0941    25.1034 ***** 1    ****  0.000
38    38      1.5710    10.2607    24.9030 ***** 1    ****  0.000
39    39      1.4390    10.3004    24.6675 ***** 1    ****  0.000
40    40      1.2914    10.2025    24.4599 ***** 1    ****  0.000
41    41      1.1677     9.9933    24.3358 ***** 1    ****  0.000
42    42      1.1011     9.7287    24.3286 ***** 1    ****  0.000
43    43      1.1095     9.4797    24.4400 ***** 1    ****  0.000
44    44      1.1906     9.3131    24.6403 ***** 1    ****  0.000
45    45      1.3226     9.2734    24.8759 ***** 1    ****  0.000
46    46      1.4702     9.3713    25.0835 ***** 1    ****  0.000
47    47      1.5939     9.5805    25.2075 ***** 1    ****  0.000
48    48      1.6605     9.8451    25.2148 ***** 1    ****  0.000
49    49      1.7271    10.1045    25.1361 ***** 1    ****  0.000
50    50      1.6507    10.2906    24.9359 ***** 1    ****  0.000
51    51      1.5211    10.3593    24.6930 ***** 1    ****  0.000
52    52      1.3678    10.2949    24.4630 ***** 1    ****  0.000
53    53      1.2262    10.1121    24.2986 ***** 1    ****  0.000
54    54      1.1285     9.8528    24.2374 ***** 1    ****  0.000
55    55      1.0971     9.5764    24.2934 ***** 1    ****  0.000
56    56      1.1394     9.3462    24.4539 ***** 1    ****  0.000
57    57      1.2455     9.2149    24.6821 ***** 1    ****  0.000
58    58      1.3911     9.2127    24.9256 ***** 1    ****  0.000
59    59      1.5430     9.3400    25.1288 ***** 1    ****  0.000
60    60      1.6662     9.5677    25.2450 ***** 1    ****  0.000
61    61      1.7327     9.8436    25.2476 ***** 1    ****  0.000
62    62      1.8041    10.1102    25.1640 ***** 1    ****  0.000
63    63      1.7329    10.3121    24.9663 ***** 1    ****  0.000
64    64      1.6076    10.4063    24.7206 ***** 1    ****  0.000
65    65      1.4530    10.3741    24.4756 ***** 1    ****  0.000
66    66      1.2997    10.2220    24.2799 ***** 1    ****  0.000
67    67      1.1782     9.9800    24.1722 ***** 1    ****  0.000
68    68      1.1124     9.6960    24.1739 ***** 1    ****  0.000
69    69      1.1155     9.4264    24.2845 ***** 1    ****  0.000
70    70      1.1867     9.2246    24.4823 ***** 1    ****  0.000
71    71      1.3120     9.1304    24.7279 ***** 1    ****  0.000
72    72      1.4666     9.1625    24.9729 ***** 1    ****  0.000
73    73      1.6199     9.3147    25.1686 ***** 1    ****  0.000
74    74      1.7414     9.5567    25.2763 ***** 1    ****  0.000
75    75      1.8072     9.8406    25.2747 ***** 1    ****  0.000
76    76      1.8848    10.0959    25.1964 ***** 1    ****  0.000
77    77      1.8284    10.3041    25.0209 ***** 1    ****  0.000
78    78      1.7228    10.4291    24.7960 ***** 1    ****  0.000
79    79      1.5841    10.4518    24.5561 ***** 1    ****  0.000
80    80      1.4334    10.3689    24.3376 ***** 1    ****  0.000
81    81      1.2937    10.1928    24.1737 ***** 1    ****  0.000
82    82      1.1862     9.9506    24.0896 ***** 1    ****  0.000
83    83      1.1274     9.6789    24.0979 ***** 1    ****  0.000
84    84      1.1260     9.4193    24.1974 ***** 1    ****  0.000
85    85      1.1825     9.2111    24.3729 ***** 1    ****  0.000
86    86      1.2881     9.0861    24.5978 ***** 1    ****  0.000
87    87      1.4267     9.0634    24.8377 ***** 1    ****  0.000
88    88      1.5774     9.1464    25.0562 ***** 1    ****  0.000
89    89      1.7171     9.3224    25.2200 ***** 1    ****  0.000
90    90      1.8246     9.5646    25.3042 ***** 1    ****  0.000
91    91      1.8835     9.8363    25.2959 ***** 1    ****  0.000
92    92      1.9642    10.0944    25.2130 ***** 1    ****  0.000
93    93      1.9120    10.3112    25.0411 ***** 1    ****  0.000
94    94      1.8116    10.4516    24.8188 ***** 1    ****  0.000
95    95      1.6764    10.4968    24.5760 ***** 1    ****  0.000
96    96      1.5249    10.4405    24.3455 ***** 1    ****  0.000
97    97      1.3773    10.2905    24.1585 ***** 1    ****  0.000
98    98      1.2538    10.0669    24.0402 ***** 1    ****  0.000
99    99      1.1708     9.8000    24.0066 ***** 1    ****  0.000
100   100     1.1398     9.5258    24.0622 ***** 1    ****  0.000
101   101     1.1647     9.2813    24.1995 ***** 1    ****  0.000
102   102     1.2424     9.0996    24.4001 ***** 1    ****  0.000
103   103     1.3622     9.0052    24.6367 ***** 1    ****  0.000
104   104     1.5080     9.0108    24.8774 ***** 1    ****  0.000
105   105     1.6602     9.1158    25.0898 ***** 1    ****  0.000
106   106     1.7981     9.3058    25.2451 ***** 1    ****  0.000
107   107     1.9031     9.5553    25.3223 ***** 1    ****  0.000
108   108     1.9611     9.8306    25.3111 ***** 1    ****  0.000
109   109     1.5073    11.9890    20.5353 ***** 1    ****  0.000
110   110     1.5239    11.9159    20.5092 ***** 1    ****  0.000
111   111     1.4931    12.0603    20.5670 ***** 1    ****  0.000
112   112     1.6519    11.9554    20.4796 ***** 1    ****  0.000
113   113     1.4027    11.8717    20.5557 ***** 1    ****  0.000
114   114     1.4812    12.1294    20.6041 ***** 1    ****  0.000
115   115     1.7076    12.1161    20.5246 ***** 1    ****  0.000
116   116     1.6809    11.8498    20.4523 ***** 1    ****  0.000
117   117     1.4285    11.7651    20.5293 ***** 1    ****  0.000
118   118     1.2993    11.9789    20.6493 ***** 1    ****  0.000
119   119     1.4718    12.1958    20.6463 ***** 1    ****  0.000
120   120     1.7098    12.2269    20.5828 ***** 1    ****  0.000
121   121     1.8161    12.0049    20.4698 ***** 1    ****  0.000
122   122     1.7035    11.7605    20.4395 ***** 1    ****  0.000
123   123     1.4570    11.6777    20.5148 ***** 1    ****  0.000
124   124     1.2620    11.8188    20.6389 ***** 1    ****  0.000
125   125     1.2656    12.0776    20.7184 ***** 1    ****  0.000
126   126     1.4648    12.2592    20.6935 ***** 1    ****  0.000
127   127     1.7313    12.2997    20.6280 ***** 1    ****  0.000
128   128     1.8875    12.0856    20.4969 ***** 1    ****  0.000
129   129     1.8376    11.8022    20.4288 ***** 1    ****  0.000
130   130     1.6108    11.6156    20.4634 ***** 1    ****  0.000
131   131     1.3400    11.6351    20.5806 ***** 1    ****  0.000
132   132     1.1839    11.8492    20.7117 ***** 1    ****  0.000
133   133     1.2337    12.1326    20.7799 ***** 1    ****  0.000
134   134     1.4605    12.3192    20.7452 ***** 1    ****  0.000
135   135     1.7210    12.3780    20.6944 ***** 1    ****  0.000
136   136     1.9172    12.2203    20.5646 ***** 1    ****  0.000
137   137     1.9723    11.9624    20.4613 ***** 1    ****  0.000
138   138     1.8653    11.7029    20.4241 ***** 1    ****  0.000
139   139     1.6370    11.5408    20.4670 ***** 1    ****  0.000
140   140     1.3747    11.5381    20.5738 ***** 1    ****  0.000
141   141     1.1786    11.6958    20.7036 ***** 1    ****  0.000
142   142     1.1235    11.9537    20.8069 ***** 1    ****  0.000
143   143     1.2305    12.2133    20.8442 ***** 1    ****  0.000
144   144     1.4587    12.3753    20.8012 ***** 1    ****  0.000
145   145     1.7133    12.4436    20.7621 ***** 1    ****  0.000
146   146     1.9266    12.3269    20.6381 ***** 1    ****  0.000
147   147     2.0422    12.1085    20.5223 ***** 1    ****  0.000
148   148     2.0292    11.8468    20.4458 ***** 1    ****  0.000
149   149     1.8910    11.6121    20.4291 ***** 1    ****  0.000
150   150     1.6647    11.4671    20.4766 ***** 1    ****  0.000
151   151     1.4109    11.4508    20.5756 ***** 1    ****  0.000
152   152     1.1977    11.5675    20.6997 ***** 1    ****  0.000
153   153     1.0821    11.7859    20.8154 ***** 1    ****  0.000
154   154     1.0951    12.0476    20.8919 ***** 1    ****  0.000
155   155     1.2333    12.2823    20.9086 ***** 1    ****  0.000
156   156     1.4596    12.4273    20.8611 ***** 1    ****  0.000
157   157     1.7271    12.4972    20.8232 ***** 1    ****  0.000
158   158     1.9571    12.3908    20.6956 ***** 1    ****  0.000
159   159     2.1004    12.1800    20.5708 ***** 1    ****  0.000
160   160     2.1241    11.9130    20.4776 ***** 1    ****  0.000
161   161     2.0227    11.6510    20.4372 ***** 1    ****  0.000
162   162     1.8196    11.4540    20.4590 ***** 1    ****  0.000
163   163     1.5612    11.3672    20.5379 ***** 1    ****  0.000
164   164     1.3067    11.4105    20.6558 ***** 1    ****  0.000
165   165     1.1144    11.5738    20.7858 ***** 1    ****  0.000
166   166     1.0285    11.8199    20.8980 ***** 1    ****  0.000
167   167     1.0685    12.0923    20.9668 ***** 1    ****  0.000
168   168     1.2253    12.3286    20.9764 ***** 1    ****  0.000
169   169     1.4630    12.4747    20.9246 ***** 1    ****  0.000
170   170     1.7403    12.5452    20.8886 ***** 1    ****  0.000
171   171     1.9832    12.4495    20.7590 ***** 1    ****  0.000
172   172     2.1494    12.2491    20.6280 ***** 1    ****  0.000
173   173     2.2061    11.9837    20.5218 ***** 1    ****  0.000
174   174     2.1421    11.7059    20.4612 ***** 1    ****  0.000
175   175     1.9699    11.4707    20.4582 ***** 1    ****  0.000
176   176     1.7238    11.3248    20.5136 ***** 1    ****  0.000
177   177     1.4525    11.2969    20.6162 ***** 1    ****  0.000
178   178     1.2096    11.3927    20.7458 ***** 1    ****  0.000
179   179     1.0434    11.5931    20.8767 ***** 1    ****  0.000
180   180     0.9867    11.8585    20.9830 ***** 1    ****  0.000
181   181     1.0508    12.1363    21.0436 ***** 1    ****  0.000
182   182     1.2229    12.3714    21.0465 ***** 1    ****  0.000
183   183     1.4690    12.5174    20.9912 ***** 1    ****  0.000
184   184     1.7364    12.5890    20.9649 ***** 1    ****  0.000
185   185     1.9770    12.5190    20.8443 ***** 1    ****  0.000
186   186     2.1627    12.3557    20.7170 ***** 1    ****  0.000
187   187     2.2652    12.1240    20.6025 ***** 1    ****  0.000
188   188     2.2688    11.8590    20.5181 ***** 1    ****  0.000
189   189     2.1731    11.6012    20.4768 ***** 1    ****  0.000
190   190     1.9927    11.3898    20.4847 ***** 1    ****  0.000
191   191     1.7549    11.2570    20.5407 ***** 1    ****  0.000
192   192     1.4960    11.2230    20.6363 ***** 1    ****  0.000
193   193     1.2554    11.2929    20.7569 ***** 1    ****  0.000
194   194     1.0697    11.4562    20.8842 ***** 1    ****  0.000
195   195     0.9672    11.6880    20.9987 ***** 1    ****  0.000
196   196     0.9636    11.9529    21.0831 ***** 1    ****  0.000
197   197     1.0593    12.2107    21.1245 ***** 1    ****  0.000
198   198     1.2397    12.4221    21.1165 ***** 1    ****  0.000
199   199     1.4775    12.5550    21.0605 ***** 1    ****  0.000
200   200     1.7506    12.6248    21.0363 ***** 1    ****  0.000
201   201     1.9974    12.5630    20.9157 ***** 1    ****  0.000
202   202     2.1956    12.4104    20.7867 ***** 1    ****  0.000
203   203     2.3184    12.1874    20.6665 ***** 1    ****  0.000
204   204     2.3493    11.9242    20.5715 ***** 1    ****  0.000
205   205     2.2841    11.6563    20.5145 ***** 1    ****  0.000
206   206     2.1315    11.4200    20.5032 ***** 1    ****  0.000
207   207     1.9123    11.2471    20.5391 ***** 1    ****  0.000
208   208     1.6559    11.1609    20.6173 ***** 1    ****  0.000
209   209     1.3971    11.1733    20.7274 ***** 1    ****  0.000
210   210     1.1708    11.2823    20.8544 ***** 1    ****  0.000
211   211     1.0075    11.4734    20.9811 ***** 1    ****  0.000
212   212     0.9293    11.7207    21.0906 ***** 1    ****  0.000
213   213     0.9467    11.9908    21.1679 ***** 1    ****  0.000
214   214     1.0575    12.2473    21.2027 ***** 1    ****  0.000
215   215     1.2466    12.4555    21.1902 ***** 1    ****  0.000
216   216     1.4886    12.5872    21.1321 ***** 1    ****  0.000
217   217     2.2538    12.6261    21.5536 ***** 1    ****  0.000
218   218     2.1836    12.6477    21.5834 ***** 1    ****  0.000
219   219     2.3217    12.5987    21.5229 ***** 1    ****  0.000
220   220     2.1379    12.6744    21.4569 ***** 1    ****  0.000
221   221     2.2226    12.6037    21.7073 ***** 1    ****  0.000
222   222     2.3866    12.5657    21.4916 ***** 1    ****  0.000
223   223     2.2372    12.6358    21.3169 ***** 1    ****  0.000
224   224     2.0341    12.6952    21.4959 ***** 1    ****  0.000
225   225     2.1198    12.6235    21.7495 ***** 1    ****  0.000
226   226     2.3759    12.5198    21.7273 ***** 1    ****  0.000
227   227     2.4484    12.5274    21.4599 ***** 1    ****  0.000
228   228     2.3287    12.5833    21.2496 ***** 1    ****  0.000
229   229     2.0802    12.6806    21.2952 ***** 1    ****  0.000
230   230     1.9480    12.7024    21.5305 ***** 1    ****  0.000
231   231     2.0318    12.6324    21.7783 ***** 1    ****  0.000
232   232     2.2684    12.5232    21.8520 ***** 1    ****  0.000
233   233     2.4797    12.4571    21.6960 ***** 1    ****  0.000
234   234     2.5065    12.4839    21.4279 ***** 1    ****  0.000
235   235     2.3776    12.5412    21.1892 ***** 1    ****  0.000
236   236     2.1047    12.6550    21.1899 ***** 1    ****  0.000
237   237     1.9018    12.7102    21.3978 ***** 1    ****  0.000
238   238     1.8877    12.6746    21.6910 ***** 1    ****  0.000
239   239     2.0708    12.5689    21.8978 ***** 1    ****  0.000
240   240     2.3437    12.4551    21.8970 ***** 1    ****  0.000
241   241     2.5466    12.3999    21.6892 ***** 1    ****  0.000
242   242     2.5607    12.4355    21.3960 ***** 1    ****  0.000
243   243     2.4509    12.4794    21.1511 ***** 1    ****  0.000
244   244     2.1999    12.5933    21.0863 ***** 1    ****  0.000
245   245     1.9533    12.6809    21.1944 ***** 1    ****  0.000
246   246     1.8052    12.7087    21.4342 ***** 1    ****  0.000
247   247     1.8123    12.6661    21.7141 ***** 1    ****  0.000
248   248     1.9718    12.5694    21.9272 ***** 1    ****  0.000
249   249     2.2229    12.4555    21.9920 ***** 1    ****  0.000
250   250     2.4695    12.3679    21.8839 ***** 1    ****  0.000
251   251     2.6176    12.3400    21.6441 ***** 1    ****  0.000
252   252     2.6105    12.3826    21.3642 ***** 1    ****  0.000
253   253     2.5126    12.4155    21.1185 ***** 1    ****  0.000
254   254     2.2848    12.5251    21.0156 ***** 1    ****  0.000
255   255     2.0334    12.6249    21.0516 ***** 1    ****  0.000
256   256     1.8256    12.6882    21.2169 ***** 1    ****  0.000
257   257     1.7173    12.6980    21.4672 ***** 1    ****  0.000
258   258     1.7373    12.6517    21.7354 ***** 1    ****  0.000
259   259     1.8803    12.5617    21.9497 ***** 1    ****  0.000
260   260     2.1081    12.4520    22.0526 ***** 1    ****  0.000
261   261     2.3595    12.3522    22.0166 ***** 1    ****  0.000
262   262     2.5673    12.2890    21.8513 ***** 1    ****  0.000
263   263     2.6757    12.2792    21.6010 ***** 1    ****  0.000
264   264     2.6556    12.3255    21.3328 ***** 1    ****  0.000
265   265     2.5515    12.3568    21.0757 ***** 1    ****  0.000
266   266     2.3219    12.4699    20.9532 ***** 1    ****  0.000
267   267     2.0596    12.5780    20.9624 ***** 1    ****  0.000
268   268     1.8249    12.6563    21.1013 ***** 1    ****  0.000
269   269     1.6713    12.6869    21.3380 ***** 1    ****  0.000
270   270     1.6342    12.6627    21.6183 ***** 1    ****  0.000
271   271     1.7220    12.5893    21.8780 ***** 1    ****  0.000
272   272     1.9146    12.4835    22.0576 ***** 1    ****  0.000
273   273     2.1679    12.3696    22.1159 ***** 1    ****  0.000
274   274     2.4238    12.2736    22.0397 ***** 1    ****  0.000
275   275     2.6238    12.2175    21.8463 ***** 1    ****  0.000
276   276     2.7219    12.2142    21.5800 ***** 1    ****  0.000
277   277     2.6959    12.2645    21.3019 ***** 1    ****  0.000
278   278     2.5865    12.2936    21.0366 ***** 1    ****  0.000
279   279     2.3578    12.4087    20.8975 ***** 1    ****  0.000
280   280     2.0900    12.5226    20.8820 ***** 1    ****  0.000
281   281     1.8362    12.6128    20.9933 ***** 1    ****  0.000
282   282     1.6466    12.6613    21.2093 ***** 1    ****  0.000
283   283     1.5588    12.6586    21.4872 ***** 1    ****  0.000
284   284     1.5902    12.6052    21.7720 ***** 1    ****  0.000
285   285     1.7346    12.5116    22.0072 ***** 1    ****  0.000
286   286     1.9634    12.3965    22.1463 ***** 1    ****  0.000
287   287     2.2312    12.2825    22.1618 ***** 1    ****  0.000
288   288     2.4850    12.1924    22.0505 ***** 1    ****  0.000
289   289     2.6745    12.1439    21.8345 ***** 1    ****  0.000
290   290     2.7623    12.1466    21.5566 ***** 1    ****  0.000
291   291     2.7309    12.2000    21.2719 ***** 1    ****  0.000
292   292     2.6289    12.2198    21.0139 ***** 1    ****  0.000
293   293     2.4229    12.3274    20.8613 ***** 1    ****  0.000
294   294     2.1737    12.4388    20.8082 ***** 1    ****  0.000
295   295     1.9194    12.5372    20.8627 ***** 1    ****  0.000
296   296     1.6986    12.6076    21.0165 ***** 1    ****  0.000
297   297     1.5451    12.6392    21.2461 ***** 1    ****  0.000
298   298     1.4820    12.6271    21.5167 ***** 1    ****  0.000
299   299     1.5191    12.5734    21.7870 ***** 1    ****  0.000
300   300     1.6508    12.4861    22.0159 ***** 1    ****  0.000
301   301     1.8568    12.3785    22.1685 ***** 1    ****  0.000
302   302     2.1060    12.2670    22.2216 ***** 1    ****  0.000
303   303     2.3603    12.1686    22.1671 ***** 1    ****  0.000
304   304     2.5811    12.0983    22.0133 ***** 1    ****  0.000
305   305     2.7346    12.0667    21.7836 ***** 1    ****  0.000
306   306     2.7977    12.0787    21.5130 ***** 1    ****  0.000
307   307     2.7606    12.1325    21.2427 ***** 1    ****  0.000
308   308     2.6540    12.1498    20.9813 ***** 1    ****  0.000
309   309     2.4508    12.2576    20.8188 ***** 1    ****  0.000
310   310     2.2027    12.3709    20.7494 ***** 1    ****  0.000
311   311     1.9430    12.4746    20.7823 ***** 1    ****  0.000
312   312     1.7069    12.5546    20.9131 ***** 1    ****  0.000
313   313     1.5263    12.6001    21.1241 ***** 1    ****  0.000
314   314     1.4255    12.6050    21.3869 ***** 1    ****  0.000
315   315     1.4181    12.5686    21.6660 ***** 1    ****  0.000
316   316     1.5052    12.4957    21.9236 ***** 1    ****  0.000
317   317     1.6749    12.3964    22.1250 ***** 1    ****  0.000
318   318     1.9045    12.2839    22.2430 ***** 1    ****  0.000
319   319     2.1628    12.1735    22.2616 ***** 1    ****  0.000
320   320     2.4150    12.0801    22.1783 ***** 1    ****  0.000
321   321     2.6269    12.0162    22.0044 ***** 1    ****  0.000
322   322     2.7701    11.9906    21.7634 ***** 1    ****  0.000
323   323     2.8252    12.0067    21.4878 ***** 1    ****  0.000
324   324     2.7846    12.0622    21.2148 ***** 1    ****  0.000
325   325     3.7209    10.3950    11.0150 ***** 1    ****  0.000
326   326     3.7223    10.3830    10.9366 ***** 1    ****  0.000
327   327     3.7257    10.4061    11.0934 ***** 1    ****  0.000
328   328     3.7515    10.5156    10.9167 ***** 1    ****  0.000
329   329     3.7117    10.2478    10.9570 ***** 1    ****  0.000
330   330     3.7367    10.4162    11.1713 ***** 1    ****  0.000
331   331     3.7829    10.6208    11.0541 ***** 1    ****  0.000
332   332     3.7648    10.4987    10.8060 ***** 1    ****  0.000
333   333     3.7245    10.2276    10.8467 ***** 1    ****  0.000
334   334     3.7177    10.1821    11.1200 ***** 1    ****  0.000
335   335     3.7538    10.4252    11.2482 ***** 1    ****  0.000
336   336     3.8099    10.6547    11.1716 ***** 1    ****  0.000
337   337     3.8130    10.6752    10.9016 ***** 1    ****  0.000
338   338     3.7839    10.4793    10.7170 ***** 1    ****  0.000
339   339     3.7445    10.2143    10.7568 ***** 1    ****  0.000
340   340     3.7245    10.0799    10.9910 ***** 1    ****  0.000
341   341     3.7390    10.1773    11.2433 ***** 1    ****  0.000
342   342     3.7770    10.4331    11.3236 ***** 1    ****  0.000
343   343     3.8433    10.6906    11.2451 ***** 1    ****  0.000
344   344     3.8539    10.7616    10.9582 ***** 1    ****  0.000
345   345     3.8315    10.6112    10.7046 ***** 1    ****  0.000
346   346     3.7893    10.3274    10.6329 ***** 1    ****  0.000
347   347     3.7520    10.0766    10.7849 ***** 1    ****  0.000
348   348     3.7415    10.0056    11.0718 ***** 1    ****  0.000
349   349     3.7638    10.1560    11.3254 ***** 1    ****  0.000
350   350     3.8060    10.4398    11.3971 ***** 1    ****  0.000
351   351     3.8780    10.6961    11.3421 ***** 1    ****  0.000
352   352     3.8973    10.8256    11.0910 ***** 1    ****  0.000
353   353     3.8911    10.7845    10.8109 ***** 1    ****  0.000
354   354     3.8620    10.5883    10.6087 ***** 1    ****  0.000
355   355     3.8209    10.3120    10.5618 ***** 1    ****  0.000
356   356     3.7836    10.0612    10.6879 ***** 1    ****  0.000
357   357     3.7644     9.9317    10.9390 ***** 1    ****  0.000
358   358     3.7705     9.9729    11.2191 ***** 1    ****  0.000
359   359     3.7997    10.1691    11.4213 ***** 1    ****  0.000
360   360     3.8407    10.4453    11.4682 ***** 1    ****  0.000
361   361     3.9177    10.6972    11.4279 ***** 1    ****  0.000
362   362     3.9416    10.8580    11.2086 ***** 1    ****  0.000
363   363     3.9462    10.8888    10.9375 ***** 1    ****  0.000
364   364     3.9302    10.7813    10.6871 ***** 1    ****  0.000
365   365     3.8980    10.5644    10.5246 ***** 1    ****  0.000
366   366     3.8581    10.2963    10.4935 ***** 1    ****  0.000
367   367     3.8213    10.0486    10.6021 ***** 1    ****  0.000
368   368     3.7974     9.8879    10.8214 ***** 1    ****  0.000
369   369     3.7928     9.8571    11.0925 ***** 1    ****  0.000
370   370     3.8088     9.9645    11.3429 ***** 1    ****  0.000
371   371     3.8410    10.1814    11.5054 ***** 1    ****  0.000
372   372     3.8809    10.4496    11.5365 ***** 1    ****  0.000
373   373     3.9649    10.7123    11.4938 ***** 1    ****  0.000
374   374     3.9917    10.8928    11.2764 ***** 1    ****  0.000
375   375     4.0006    10.9526    10.9992 ***** 1    ****  0.000
376   376     3.9896    10.8782    10.7255 ***** 1    ****  0.000
377   377     3.9611    10.6865    10.5182 ***** 1    ****  0.000
378   378     3.9217    10.4215    10.4247 ***** 1    ****  0.000
379   379     3.8804    10.1438    10.4664 ***** 1    ****  0.000
380   380     3.8467     9.9172    10.6338 ***** 1    ****  0.000
381   381     3.8283     9.7934    10.8885 ***** 1    ****  0.000
382   382     3.8294     9.8009    11.1722 ***** 1    ****  0.000
383   383     3.8498     9.9380    11.4199 ***** 1    ****  0.000
384   384     3.8848    10.1732    11.5748 ***** 1    ****  0.000
385   385     3.9263    10.4526    11.6015 ***** 1    ****  0.000
386   386     4.0165    10.7229    11.5568 ***** 1    ****  0.000
387   387     4.0457    10.9194    11.3436 ***** 1    ****  0.000
388   388     4.0585    11.0049    11.0653 ***** 1    ****  0.000
389   389     4.0522    10.9626    10.7770 ***** 1    ****  0.000
390   390     4.0281    10.8007    10.5359 ***** 1    ****  0.000
391   391     3.9910    10.5513    10.3896 ***** 1    ****  0.000
392   392     3.9483    10.2639    10.3673 ***** 1    ****  0.000
393   393     3.9084     9.9953    10.4732 ***** 1    ****  0.000
394   394     3.8792     9.7988    10.6864 ***** 1    ****  0.000
395   395     3.8665     9.7133    10.9647 ***** 1    ****  0.000
396   396     3.8728     9.7557    11.2530 ***** 1    ****  0.000
397   397     3.8968     9.9176    11.4941 ***** 1    ****  0.000
398   398     3.9339    10.1669    11.6404 ***** 1    ****  0.000
399   399     3.9766    10.4543    11.6627 ***** 1    ****  0.000
400   400     4.0700    10.7137    11.6262 ***** 1    ****  0.000
401   401     4.1003    10.9175    11.4394 ***** 1    ****  0.000
402   402     4.1178    11.0350    11.1880 ***** 1    ****  0.000
403   403     4.1198    11.0484    10.9102 ***** 1    ****  0.000
404   404     4.1060    10.9557    10.6484 ***** 1    ****  0.000
405   405     4.0785    10.7709    10.4424 ***** 1    ****  0.000
406   406     4.0416    10.5222    10.3236 ***** 1    ****  0.000
407   407     4.0007    10.2475    10.3101 ***** 1    ****  0.000
408   408     3.9623     9.9885    10.4038 ***** 1    ****  0.000
409   409     3.9320     9.7848    10.5906 ***** 1    ****  0.000
410   410     3.9145     9.6673    10.8420 ***** 1    ****  0.000
411   411     3.9125     9.6538    11.1198 ***** 1    ****  0.000
412   412     3.9263     9.7466    11.3816 ***** 1    ****  0.000
413   413     3.9538     9.9314    11.5876 ***** 1    ****  0.000
414   414     3.9907    10.1800    11.7064 ***** 1    ****  0.000
415   415     4.0316    10.4548    11.7199 ***** 1    ****  0.000
416   416     4.1299    10.7171    11.6809 ***** 1    ****  0.000
417   417     4.1615    10.9298    11.4991 ***** 1    ****  0.000
418   418     4.1813    11.0631    11.2519 ***** 1    ****  0.000
419   419     4.1866    11.0991    10.9728 ***** 1    ****  0.000
420   420     4.1768    11.0329    10.6993 ***** 1    ****  0.000
421   421     4.1531    10.8735    10.4685 ***** 1    ****  0.000
422   422     4.1188    10.6423    10.3115 ***** 1    ****  0.000
423   423     4.0784    10.3707    10.2495 ***** 1    ****  0.000
424   424     4.0375    10.0953    10.2909 ***** 1    ****  0.000
425   425     4.0015     9.8532    10.4301 ***** 1    ****  0.000
426   426     3.9753     9.6773    10.6482 ***** 1    ****  0.000
427   427     3.9625     9.5911    10.9160 ***** 1    ****  0.000
428   428     3.9648     9.6065    11.1971 ***** 1    ****  0.000
429   429     3.9819     9.7212    11.4536 ***** 1    ****  0.000
430   430     4.0114     9.9199    11.6508 ***** 1    ****  0.000
431   431     4.0494    10.1756    11.7622 ***** 1    ****  0.000
432   432     4.0908    10.4539    11.7727 ***** 1    ****  0.000
433   433     3.5373    10.0473    13.1883 ***** 1    ****  0.000
434   434     3.4803     9.9998    13.1602 ***** 1    ****  0.000
435   435     3.5966    10.0898    13.2194 ***** 1    ****  0.000
436   436     3.5617     9.9638    13.0558 ***** 1    ****  0.000
437   437     3.4064    10.0211    13.2737 ***** 1    ****  0.000
438   438     3.6579    10.1270    13.2533 ***** 1    ****  0.000
439   439     3.7286    10.0192    13.0504 ***** 1    ****  0.000
440   440     3.4866     9.8876    13.0201 ***** 1    ****  0.000
441   441     3.3293     9.9456    13.2408 ***** 1    ****  0.000
442   442     3.4740    10.1131    13.4075 ***** 1    ****  0.000
443   443     3.7208    10.1586    13.2898 ***** 1    ****  0.000
444   444     3.8372    10.0669    13.0905 ***** 1    ****  0.000
445   445     3.6777     9.9044    12.9439 ***** 1    ****  0.000
446   446     3.4266     9.8196    12.9992 ***** 1    ****  0.000
447   447     3.2729     9.8763    13.2148 ***** 1    ****  0.000
448   448     3.3324    10.0318    13.4284 ***** 1    ****  0.000
449   449     3.5603    10.1690    13.4790 ***** 1    ****  0.000
450   450     3.7849    10.1846    13.3287 ***** 1    ****  0.000
451   451     3.9218    10.0833    13.1098 ***** 1    ****  0.000
452   452     3.7856     9.9046    12.9176 ***** 1    ****  0.000
453   453     3.5209     9.7732    12.9056 ***** 1    ****  0.000
454   454     3.2829     9.7662    13.0809 ***** 1    ****  0.000
455   455     3.2109     9.8876    13.3407 ***** 1    ****  0.000
456   456     3.3471    10.0663    13.5329 ***** 1    ****  0.000
457   457     3.6117    10.1977    13.5449 ***** 1    ****  0.000
458   458     3.8498    10.2047    13.3696 ***** 1    ****  0.000
459   459     4.0037    10.1128    13.1652 ***** 1    ****  0.000
460   460     3.9301     9.9479    12.9471 ***** 1    ****  0.000
461   461     3.7223     9.7872    12.8413 ***** 1    ****  0.000
462   462     3.4597     9.6920    12.8882 ***** 1    ****  0.000
463   463     3.2427     9.6987    13.0700 ***** 1    ****  0.000
464   464     3.1540     9.8048    13.3171 ***** 1    ****  0.000
465   465     3.2276     9.9696    13.5353 ***** 1    ****  0.000
466   466     3.4354    10.1304    13.6411 ***** 1    ****  0.000
467   467     3.6980    10.2256    13.5942 ***** 1    ****  0.000
468   468     3.9150    10.2188    13.4124 ***** 1    ****  0.000
469   469     4.0781    10.1316    13.2205 ***** 1    ****  0.000
470   470     4.0460     9.9816    12.9947 ***** 1    ****  0.000
471   471     3.8927     9.8172    12.8400 ***** 1    ****  0.000
472   472     3.6592     9.6824    12.7977 ***** 1    ****  0.000
473   473     3.4081     9.6133    12.8793 ***** 1    ****  0.000
474   474     3.2067     9.6284    13.0628 ***** 1    ****  0.000
475   475     3.1089     9.7237    13.2991 ***** 1    ****  0.000
476   476     3.1409     9.8736    13.5249 ***** 1    ****  0.000
477   477     3.2943    10.0380    13.6796 ***** 1    ****  0.000
478   478     3.5277    10.1728    13.7219 ***** 1    ****  0.000
479   479     3.7788    10.2419    13.6403 ***** 1    ****  0.000
480   480     3.9803    10.2268    13.4568 ***** 1    ****  0.000
481   481     4.1516    10.1325    13.2577 ***** 1    ****  0.000
482   482     4.1341     9.9812    13.0182 ***** 1    ****  0.000
483   483     3.9966     9.8096    12.8390 ***** 1    ****  0.000
484   484     3.7705     9.6568    12.7609 ***** 1    ****  0.000
485   485     3.5076     9.5580    12.8020 ***** 1    ****  0.000
486   486     3.2683     9.5358    12.9528 ***** 1    ****  0.000
487   487     3.1072     9.5952    13.1788 ***** 1    ****  0.000
488   488     3.0613     9.7227    13.4282 ***** 1    ****  0.000
489   489     3.1412     9.8890    13.6438 ***** 1    ****  0.000
490   490     3.3285    10.0560    13.7763 ***** 1    ****  0.000
491   491     3.5803    10.1855    13.7954 ***** 1    ****  0.000
492   492     3.8389    10.2479    13.6965 ***** 1    ****  0.000
493   493     4.0451    10.2287    13.5025 ***** 1    ****  0.000
494   494     4.2227    10.1282    13.2987 ***** 1    ****  0.000
495   495     4.2187     9.9773    13.0494 ***** 1    ****  0.000
496   496     4.0978     9.8018    12.8506 ***** 1    ****  0.000
497   497     3.8840     9.6364    12.7417 ***** 1    ****  0.000
498   498     3.6196     9.5139    12.7442 ***** 1    ****  0.000
499   499     3.3570     9.4585    12.8578 ***** 1    ****  0.000
500   500     3.1481     9.4811    13.0598 ***** 1    ****  0.000
501   501     3.0345     9.5774    13.3103 ***** 1    ****  0.000
502   502     3.0385     9.7283    13.5596 ***** 1    ****  0.000
503   503     3.1593     9.9038    13.7584 ***** 1    ****  0.000
504   504     3.3732    10.0692    13.8673 ***** 1    ****  0.000
505   505     3.6376    10.1917    13.8648 ***** 1    ****  0.000
506   506     3.9002    10.2471    13.7512 ***** 1    ****  0.000
507   507     4.1090    10.2244    13.5492 ***** 1    ****  0.000
508   508     4.2867    10.1262    13.3592 ***** 1    ****  0.000
509   509     4.3046     9.9901    13.1173 ***** 1    ****  0.000
510   510     4.2227     9.8265    12.9079 ***** 1    ****  0.000
511   511     4.0533     9.6604    12.7628 ***** 1    ****  0.000
512   512     3.8225     9.5169    12.7041 ***** 1    ****  0.000
513   513     3.5651     9.4181    12.7407 ***** 1    ****  0.000
514   514     3.3206     9.3788    12.8671 ***** 1    ****  0.000
515   515     3.1260     9.4051    13.0640 ***** 1    ****  0.000
516   516     3.0110     9.4930    13.3014 ***** 1    ****  0.000
517   517     2.9931     9.6291    13.5433 ***** 1    ****  0.000
518   518     3.0751     9.7926    13.7527 ***** 1    ****  0.000
519   519     3.2444     9.9588    13.8978 ***** 1    ****  0.000
520   520     3.4753    10.1022    13.9565 ***** 1    ****  0.000
521   521     3.7326    10.2011    13.9199 ***** 1    ****  0.000
522   522     3.9772    10.2404    13.7935 ***** 1    ****  0.000
523   523     4.1718    10.2141    13.5966 ***** 1    ****  0.000
524   524     4.3519    10.1103    13.4048 ***** 1    ****  0.000
525   525     4.3790     9.9761    13.1588 ***** 1    ****  0.000
526   526     4.3105     9.8131    12.9398 ***** 1    ****  0.000
527   527     4.1556     9.6433    12.7773 ***** 1    ****  0.000
528   528     3.9352     9.4896    12.6932 ***** 1    ****  0.000
529   529     3.6790     9.3729    12.6989 ***** 1    ****  0.000
530   530     3.4218     9.3088    12.7937 ***** 1    ****  0.000
531   531     3.1982     9.3060    12.9648 ***** 1    ****  0.000
532   532     3.0385     9.3650    13.1889 ***** 1    ****  0.000
533   533     2.9641     9.4776    13.4360 ***** 1    ****  0.000
534   534     2.9852     9.6288    13.6725 ***** 1    ****  0.000
535   535     3.0988     9.7981    13.8666 ***** 1    ****  0.000
536   536     3.2898     9.9627    13.9920 ***** 1    ****  0.000
537   537     3.5321    10.1002    14.0319 ***** 1    ****  0.000
538   538     3.7932    10.1922    13.9807 ***** 1    ****  0.000
539   539     4.0378    10.2262    13.8455 ***** 1    ****  0.000
540   540     4.2328    10.1976    13.6445 ***** 1    ****  0.000
541   541     4.0343     9.4074    14.6440 ***** 1    ****  0.000
542   542     3.9552     9.4077    14.6507 ***** 1    ****  0.000
543   543     4.1125     9.4061    14.6311 ***** 1    ****  0.000
544   544     3.9530     9.5413    14.6200 ***** 1    ****  0.000
545   545     3.9556     9.2710    14.6628 ***** 1    ****  0.000
546   546     4.1895     9.4039    14.6122 ***** 1    ****  0.000
547   547     4.1009     9.6237    14.5723 ***** 1    ****  0.000
548   548     3.8402     9.5417    14.6182 ***** 1    ****  0.000
549   549     3.8429     9.2680    14.6615 ***** 1    ****  0.000
550   550     4.1053     9.1808    14.6424 ***** 1    ****  0.000
551   551     4.2647     9.4007    14.5873 ***** 1    ****  0.000
552   552     4.2188     9.6386    14.5329 ***** 1    ****  0.000
553   553     3.9562     9.7007    14.5560 ***** 1    ****  0.000
554   554     3.7478     9.5360    14.6085 ***** 1    ****  0.000
555   555     3.7504     9.2686    14.6509 ***** 1    ****  0.000
556   556     3.9622     9.0998    14.6512 ***** 1    ****  0.000
557   557     4.2235     9.1567    14.6092 ***** 1    ****  0.000
558   558     4.3377     9.3965    14.5566 ***** 1    ****  0.000
559   559     4.2931     9.6624    14.4915 ***** 1    ****  0.000
560   560     4.0209     9.7768    14.5075 ***** 1    ****  0.000
561   561     3.7509     9.6677    14.5588 ***** 1    ****  0.000
562   562     3.6413     9.3990    14.6155 ***** 1    ****  0.000
563   563     3.7562     9.1281    14.6443 ***** 1    ****  0.000
564   564     4.0284     9.0137    14.6283 ***** 1    ****  0.000
565   565     4.2984     9.1228    14.5769 ***** 1    ****  0.000
566   566     4.4081     9.3915    14.5203 ***** 1    ****  0.000
567   567     4.3858     9.6524    14.4472 ***** 1    ****  0.000
568   568     4.1568     9.8190    14.4494 ***** 1    ****  0.000
569   569     3.8758     9.8218    14.4843 ***** 1    ****  0.000
570   570     3.6501     9.6596    14.5386 ***** 1    ****  0.000
571   571     3.5658     9.3945    14.5915 ***** 1    ****  0.000
572   572     3.6553     9.1276    14.6228 ***** 1    ****  0.000
573   573     3.8843     8.9610    14.6206 ***** 1    ****  0.000
574   574     4.1653     8.9582    14.5857 ***** 1    ****  0.000
575   575     4.3910     9.1204    14.5315 ***** 1    ****  0.000
576   576     4.4753     9.3855    14.4786 ***** 1    ****  0.000
577   577     4.4663     9.6398    14.3992 ***** 1    ****  0.000
578   578     4.2729     9.8323    14.3928 ***** 1    ****  0.000
579   579     4.0106     9.9046    14.4143 ***** 1    ****  0.000
580   580     3.7497     9.8374    14.4578 ***** 1    ****  0.000
581   581     3.5601     9.6487    14.5118 ***** 1    ****  0.000
582   582     3.4925     9.3890    14.5617 ***** 1    ****  0.000
583   583     3.5652     9.1280    14.5942 ***** 1    ****  0.000
584   584     3.7586     8.9355    14.6006 ***** 1    ****  0.000
585   585     4.0209     8.8632    14.5792 ***** 1    ****  0.000
586   586     4.2818     8.9304    14.5356 ***** 1    ****  0.000
587   587     4.4714     9.1191    14.4817 ***** 1    ****  0.000
588   588     4.5389     9.3787    14.4317 ***** 1    ****  0.000
589   589     4.5285     9.6440    14.3454 ***** 1    ****  0.000
590   590     4.3397     9.8556    14.3353 ***** 1    ****  0.000
591   591     4.0754     9.9575    14.3523 ***** 1    ****  0.000
592   592     3.7962     9.9265    14.3924 ***** 1    ****  0.000
593   593     3.5660     9.7696    14.4464 ***** 1    ****  0.000
594   594     3.4376     9.5227    14.5019 ***** 1    ****  0.000
595   595     3.4404     9.2424    14.5463 ***** 1    ****  0.000
596   596     3.5737     8.9929    14.5693 ***** 1    ****  0.000
597   597     3.8070     8.8314    14.5658 ***** 1    ****  0.000
598   598     4.0869     8.7949    14.5364 ***** 1    ****  0.000
599   599     4.3492     8.8917    14.4879 ***** 1    ****  0.000
600   600     4.5339     9.0997    14.4315 ***** 1    ****  0.000
601   601     4.5986     9.3712    14.3801 ***** 1    ****  0.000
602   602     4.5869     9.6441    14.2875 ***** 1    ****  0.000
603   603     4.4043     9.8709    14.2742 ***** 1    ****  0.000
604   604     4.1425     9.9983    14.2868 ***** 1    ****  0.000
605   605     3.8533    10.0012    14.3227 ***** 1    ****  0.000
606   606     3.5940     9.8788    14.3749 ***** 1    ****  0.000
607   607     3.4159     9.6555    14.4329 ***** 1    ****  0.000
608   608     3.3543     9.3756    14.4853 ***** 1    ****  0.000
609   609     3.4214     9.0943    14.5218 ***** 1    ****  0.000
610   610     3.6040     8.8675    14.5350 ***** 1    ****  0.000
611   611     3.8658     8.7400    14.5224 ***** 1    ****  0.000
612   612     4.1550     8.7372    14.4865 ***** 1    ****  0.000
613   613     4.4143     8.8595    14.4344 ***** 1    ****  0.000
614   614     4.5924     9.0828    14.3763 ***** 1    ****  0.000
615   615     4.6540     9.3628    14.3239 ***** 1    ****  0.000
616   616     4.6482     9.6237    14.2276 ***** 1    ****  0.000
617   617     4.4926     9.8535    14.2105 ***** 1    ****  0.000
618   618     4.2617    10.0084    14.2148 ***** 1    ****  0.000
619   619     3.9905    10.0646    14.2400 ***** 1    ****  0.000
620   620     3.7204    10.0137    14.2821 ***** 1    ****  0.000
621   621     3.4925     9.8633    14.3347 ***** 1    ****  0.000
622   622     3.3414     9.6365    14.3899 ***** 1    ****  0.000
623   623     3.2902     9.3676    14.4393 ***** 1    ****  0.000
624   624     3.3467     9.0977    14.4752 ***** 1    ****  0.000
625   625     3.5023     8.8679    14.4923 ***** 1    ****  0.000
626   626     3.7332     8.7130    14.4880 ***** 1    ****  0.000
627   627     4.0044     8.6568    14.4629 ***** 1    ****  0.000
628   628     4.2745     8.7077    14.4208 ***** 1    ****  0.000
629   629     4.5024     8.8581    14.3681 ***** 1    ****  0.000
630   630     4.6535     9.0849    14.3129 ***** 1    ****  0.000
631   631     4.7047     9.3538    14.2636 ***** 1    ****  0.000
632   632     4.6964     9.6179    14.1626 ***** 1    ****  0.000
633   633     4.5470     9.8557    14.1434 ***** 1    ****  0.000
634   634     4.3224    10.0255    14.1446 ***** 1    ****  0.000
635   635     4.0529    10.1042    14.1659 ***** 1    ****  0.000
636   636     3.7750    10.0813    14.2045 ***** 1    ****  0.000
637   637     3.5262     9.9598    14.2552 ***** 1    ****  0.000
638   638     3.3400     9.7561    14.3111 ***** 1    ****  0.000
639   639     3.2416     9.4979    14.3647 ***** 1    ****  0.000
640   640     3.2444     9.2198    14.4087 ***** 1    ****  0.000
641   641     3.3478     8.9596    14.4373 ***** 1    ****  0.000
642   642     3.5381     8.7522    14.4464 ***** 1    ****  0.000
643   643     3.7894     8.6259    14.4350 ***** 1    ****  0.000
644   644     4.0678     8.5975    14.4045 ***** 1    ****  0.000
645   645     4.3357     8.6709    14.3591 ***** 1    ****  0.000
646   646     4.5570     8.8363    14.3048 ***** 1    ****  0.000
647   647     4.7018     9.0713    14.2492 ***** 1    ****  0.000
648   648     4.7504     9.3441    14.1995 ***** 1    ****  0.000
649   649     3.4080     8.4097    13.4659 ***** 1    ****  0.000
650   650     3.3554     8.4542    13.4266 ***** 1    ****  0.000
651   651     3.4638     8.3705    13.5064 ***** 1    ****  0.000
652   652     3.2881     8.4780    13.5437 ***** 1    ****  0.000
653   653     3.4325     8.4459    13.3135 ***** 1    ****  0.000
654   654     3.5225     8.3369    13.5478 ***** 1    ****  0.000
655   655     3.3537     8.4213    13.6967 ***** 1    ****  0.000
656   656     3.2185     8.5503    13.4921 ***** 1    ****  0.000
657   657     3.3648     8.5178    13.2589 ***** 1    ****  0.000
658   658     3.5904     8.3687    13.3195 ***** 1    ****  0.000
659   659     3.5836     8.3090    13.5900 ***** 1    ****  0.000
660   660     3.4376     8.3777    13.7789 ***** 1    ****  0.000
661   661     3.2251     8.5241    13.6968 ***** 1    ****  0.000
662   662     3.1693     8.6160    13.4483 ***** 1    ****  0.000
663   663     3.3121     8.5842    13.2205 ***** 1    ****  0.000
664   664     3.5461     8.4527    13.1849 ***** 1    ****  0.000
665   665     3.6950     8.3204    13.3684 ***** 1    ****  0.000
666   666     3.6467     8.2871    13.6327 ***** 1    ****  0.000
667   667     3.4899     8.3629    13.8485 ***** 1    ****  0.000
668   668     3.2432     8.5204    13.8063 ***** 1    ****  0.000
669   669     3.1159     8.6513    13.5737 ***** 1    ****  0.000
670   670     3.1826     8.6789    13.2869 ***** 1    ****  0.000
671   671     3.4042     8.5871    13.1140 ***** 1    ****  0.000
672   672     3.6509     8.4297    13.1562 ***** 1    ****  0.000
673   673     3.7782     8.2988    13.3888 ***** 1    ****  0.000
674   674     3.7115     8.2712    13.6756 ***** 1    ****  0.000
675   675     3.5756     8.3392    13.9010 ***** 1    ****  0.000
676   676     3.3309     8.4797    13.9258 ***** 1    ****  0.000
677   677     3.1370     8.6291    13.7833 ***** 1    ****  0.000
678   678     3.0680     8.7305    13.5280 ***** 1    ****  0.000
679   679     3.1503     8.7450    13.2574 ***** 1    ****  0.000
680   680     3.3523     8.6672    13.0749 ***** 1    ****  0.000
681   681     3.5970     8.5268    13.0501 ***** 1    ****  0.000
682   682     3.7908     8.3774    13.1925 ***** 1    ****  0.000
683   683     3.8598     8.2760    13.4478 ***** 1    ****  0.000
684   684     3.7776     8.2614    13.7184 ***** 1    ****  0.000
685   685     3.6570     8.3261    13.9471 ***** 1    ****  0.000
686   686     3.4231     8.4506    14.0124 ***** 1    ****  0.000
687   687     3.2054     8.5980    13.9392 ***** 1    ****  0.000
688   688     3.0622     8.7288    13.7472 ***** 1    ****  0.000
689   689     3.0320     8.8080    13.4878 ***** 1    ****  0.000
690   690     3.1227     8.8144    13.2305 ***** 1    ****  0.000
691   691     3.3102     8.7461    13.0442 ***** 1    ****  0.000
692   692     3.5441     8.6217    12.9789 ***** 1    ****  0.000
693   693     3.7618     8.4743    13.0521 ***** 1    ****  0.000
694   694     3.9050     8.3434    13.2441 ***** 1    ****  0.000
695   695     3.9352     8.2643    13.5035 ***** 1    ****  0.000
696   696     3.8445     8.2579    13.7608 ***** 1    ****  0.000
697   697     3.7199     8.3288    14.0003 ***** 1    ****  0.000
698   698     3.4790     8.4531    14.0844 ***** 1    ****  0.000
699   699     3.2443     8.6049    14.0356 ***** 1    ****  0.000
700   700     3.0695     8.7496    13.8651 ***** 1    ****  0.000
701   701     2.9947     8.8539    13.6120 ***** 1    ****  0.000
702   702     3.0370     8.8940    13.3343 ***** 1    ****  0.000
703   703     3.1868     8.8607    13.0955 ***** 1    ****  0.000
704   704     3.4097     8.7616    12.9505 ***** 1    ****  0.000
705   705     3.6546     8.6194    12.9323 ***** 1    ****  0.000
706   706     3.8655     8.4667    13.0452 ***** 1    ****  0.000
707   707     3.9940     8.3385    13.2634 ***** 1    ****  0.000
708   708     4.0107     8.2642    13.5367 ***** 1    ****  0.000
709   709     3.9118     8.2607    13.8027 ***** 1    ****  0.000
710   710     3.7848     8.3372    14.0501 ***** 1    ****  0.000
711   711     3.5402     8.4598    14.1504 ***** 1    ****  0.000
712   712     3.2937     8.6132    14.1247 ***** 1    ****  0.000
713   713     3.0942     8.7670    13.9781 ***** 1    ****  0.000
714   714     2.9812     8.8908    13.7396 ***** 1    ****  0.000
715   715     2.9771     8.9599    13.4565 ***** 1    ****  0.000
716   716     3.0826     8.9608    13.1849 ***** 1    ****  0.000
717   717     3.2769     8.8932    12.9785 ***** 1    ****  0.000
718   718     3.5216     8.7706    12.8782 ***** 1    ****  0.000
719   719     3.7680     8.6172    12.9039 ***** 1    ****  0.000
720   720     3.9675     8.4634    13.0505 ***** 1    ****  0.000
721   721     4.0805     8.3396    13.2889 ***** 1    ****  0.000
722   722     4.0847     8.2705    13.5720 ***** 1    ****  0.000
723   723     3.9791     8.2696    13.8437 ***** 1    ****  0.000
724   724     3.8650     8.3454    14.0857 ***** 1    ****  0.000
725   725     3.6372     8.4541    14.2025 ***** 1    ****  0.000
726   726     3.3974     8.5942    14.2161 ***** 1    ****  0.000
727   727     3.1821     8.7445    14.1246 ***** 1    ****  0.000
728   728     3.0240     8.8821    13.9418 ***** 1    ****  0.000
729   729     2.9473     8.9860    13.6955 ***** 1    ****  0.000
730   730     2.9635     9.0403    13.4233 ***** 1    ****  0.000
731   731     3.0703     9.0370    13.1665 ***** 1    ****  0.000
732   732     3.2514     8.9763    12.9644 ***** 1    ****  0.000
733   733     3.4791     8.8676    12.8476 ***** 1    ****  0.000
734   734     3.7189     8.7275    12.8339 ***** 1    ****  0.000
735   735     3.9343     8.5772    12.9254 ***** 1    ****  0.000
736   736     4.0923     8.4397    13.1083 ***** 1    ****  0.000
737   737     4.1691     8.3358    13.3545 ***** 1    ****  0.000
738   738     4.1528     8.2814    13.6268 ***** 1    ****  0.000
739   739     4.0460     8.2848    13.8835 ***** 1    ****  0.000
740   740     3.9306     8.3658    14.1287 ***** 1    ****  0.000
741   741     3.7029     8.4721    14.2556 ***** 1    ****  0.000
742   742     3.4596     8.6105    14.2853 ***** 1    ****  0.000
743   743     3.2336     8.7625    14.2139 ***** 1    ****  0.000
744   744     3.0554     8.9073    14.0511 ***** 1    ****  0.000
745   745     2.9491     9.0256    13.8187 ***** 1    ****  0.000
746   746     2.9291     9.1013    13.5483 ***** 1    ****  0.000
747   747     2.9980     9.1241    13.2763 ***** 1    ****  0.000
748   748     3.1465     9.0911    13.0395 ***** 1    ****  0.000
749   749     3.3547     9.0066    12.8698 ***** 1    ****  0.000
750   750     3.5943     8.8821    12.7902 ***** 1    ****  0.000
751   751     3.8330     8.7344    12.8113 ***** 1    ****  0.000
752   752     4.0386     8.5834    12.9305 ***** 1    ****  0.000
753   753     4.1833     8.4496    13.1315 ***** 1    ****  0.000
754   754     4.2475     8.3509    13.3872 ***** 1    ****  0.000
755   755     4.2227     8.3008    13.6631 ***** 1    ****  0.000
756   756     4.1120     8.3060    13.9220 ***** 1    ****  0.000
757   757     2.3230     7.5781    10.4150 ***** 1    ****  0.000
758   758     2.3160     7.6295    10.3550 ***** 1    ****  0.000
759   759     2.3349     7.5302    10.4771 ***** 1    ****  0.000
760   760     2.2375     7.7103    10.4333 ***** 1    ****  0.000
761   761     2.4090     7.5587    10.2833 ***** 1    ****  0.000
762   762     2.3515     7.4859    10.5408 ***** 1    ****  0.000
763   763     2.2128     7.6721    10.6032 ***** 1    ****  0.000
764   764     2.2351     7.7899    10.3533 ***** 1    ****  0.000
765   765     2.4089     7.6363    10.2014 ***** 1    ****  0.000
766   766     2.4939     7.4237    10.3575 ***** 1    ****  0.000
767   767     2.3728     7.4458    10.6058 ***** 1    ****  0.000
768   768     2.2317     7.6186    10.7148 ***** 1    ****  0.000
769   769     2.1625     7.8175    10.5445 ***** 1    ****  0.000
770   770     2.2431     7.8567    10.2890 ***** 1    ****  0.000
771   771     2.4129     7.7067    10.1407 ***** 1    ****  0.000
772   772     2.5439     7.4805    10.2112 ***** 1    ****  0.000
773   773     2.5375     7.3484    10.4475 ***** 1    ****  0.000
774   774     2.3986     7.4099    10.6716 ***** 1    ****  0.000
775   775     2.2441     7.6007    10.8004 ***** 1    ****  0.000
776   776     2.1406     7.8347    10.6521 ***** 1    ****  0.000
777   777     2.1790     7.9432    10.3797 ***** 1    ****  0.000
778   778     2.3368     7.8628    10.1429 ***** 1    ****  0.000
779   779     2.5215     7.6406    10.0804 ***** 1    ****  0.000
780   780     2.6250     7.4066    10.2287 ***** 1    ****  0.000
781   781     2.5866     7.2981    10.5011 ***** 1    ****  0.000
782   782     2.4288     7.3785    10.7379 ***** 1    ****  0.000
783   783     2.2839     7.5558    10.8844 ***** 1    ****  0.000
784   784     2.1523     7.7917    10.7992 ***** 1    ****  0.000
785   785     2.1186     7.9692    10.5811 ***** 1    ****  0.000
786   786     2.1956     8.0206    10.3135 ***** 1    ****  0.000
787   787     2.3541     7.9263    10.0985 ***** 1    ****  0.000
788   788     2.5333     7.7222    10.0183 ***** 1    ****  0.000
789   789     2.6649     7.4864    10.1036 ***** 1    ****  0.000
790   790     2.6986     7.3088    10.3216 ***** 1    ****  0.000
791   791     2.6216     7.2574    10.5892 ***** 1    ****  0.000
792   792     2.4632     7.3518    10.8042 ***** 1    ****  0.000
793   793     2.3278     7.5203    10.9601 ***** 1    ****  0.000
794   794     2.1839     7.7481    10.9173 ***** 1    ****  0.000
795   795     2.1082     7.9525    10.7530 ***** 1    ****  0.000
796   796     2.1211     8.0786    10.5113 ***** 1    ****  0.000
797   797     2.2191     8.0927    10.2570 ***** 1    ****  0.000
798   798     2.3760     7.9909    10.0582 ***** 1    ****  0.000
799   799     2.5496     7.8006     9.9681 ***** 1    ****  0.000
800   800     2.6935     7.5728    10.0110 ***** 1    ****  0.000
801   801     2.7692     7.3684    10.1753 ***** 1    ****  0.000
802   802     2.7563     7.2423    10.4170 ***** 1    ****  0.000
803   803     2.6583     7.2282    10.6713 ***** 1    ****  0.000
804   804     2.5015     7.3299    10.8701 ***** 1    ****  0.000
805   805     2.3627     7.5083    11.0339 ***** 1    ****  0.000
806   806     2.2072     7.7440    11.0054 ***** 1    ****  0.000
807   807     2.1125     7.9660    10.8562 ***** 1    ****  0.000
808   808     2.1004     8.1237    10.6205 ***** 1    ****  0.000
809   809     2.1737     8.1808    10.3524 ***** 1    ****  0.000
810   810     2.3155     8.1243    10.1132 ***** 1    ****  0.000
811   811     2.4934     7.9671     9.9577 ***** 1    ****  0.000
812   812     2.6666     7.7452     9.9215 ***** 1    ****  0.000
813   813     2.7954     7.5095    10.0131 ***** 1    ****  0.000
814   814     2.8504     7.3139    10.2112 ***** 1    ****  0.000
815   815     2.8189     7.2034    10.4707 ***** 1    ****  0.000
816   816     2.7082     7.2031    10.7320 ***** 1    ****  0.000
817   817     2.5435     7.3131    10.9352 ***** 1    ****  0.000
818   818     2.4032     7.4995    11.1049 ***** 1    ****  0.000
819   819     2.2387     7.7396    11.0898 ***** 1    ****  0.000
820   820     2.1282     7.9743    10.9569 ***** 1    ****  0.000
821   821     2.0935     8.1569    10.7325 ***** 1    ****  0.000
822   822     2.1415     8.2515    10.4610 ***** 1    ****  0.000
823   823     2.2627     8.2392    10.1962 ***** 1    ****  0.000
824   824     2.4331     8.1224     9.9906 ***** 1    ****  0.000
825   825     2.6189     7.9244     9.8849 ***** 1    ****  0.000
826   826     2.7834     7.6842     9.9000 ***** 1    ****  0.000
827   827     2.8939     7.4496    10.0329 ***** 1    ****  0.000
828   828     2.9286     7.2669    10.2573 ***** 1    ****  0.000
829   829     2.8806     7.1724    10.5287 ***** 1    ****  0.000
830   830     2.7594     7.1847    10.7935 ***** 1    ****  0.000
831   831     2.5890     7.3014    10.9991 ***** 1    ****  0.000
832   832     2.4603     7.4800    11.1690 ***** 1    ****  0.000
833   833     2.2970     7.7049    11.1768 ***** 1    ****  0.000
834   834     2.1726     7.9355    11.0834 ***** 1    ****  0.000
835   835     2.1061     8.1365    10.9031 ***** 1    ****  0.000
836   836     2.1077     8.2774    10.6634 ***** 1    ****  0.000
837   837     2.1770     8.3367    10.4007 ***** 1    ****  0.000
838   838     2.3035     8.3055    10.1551 ***** 1    ****  0.000
839   839     2.4680     8.1884     9.9639 ***** 1    ****  0.000
840   840     2.6454     8.0033     9.8562 ***** 1    ****  0.000
841   841     2.8088     7.7784     9.8485 ***** 1    ****  0.000
842   842     2.9331     7.5479     9.9419 ***** 1    ****  0.000
843   843     2.9996     7.3469    10.1221 ***** 1    ****  0.000
844   844     2.9981     7.2060    10.3619 ***** 1    ****  0.000
845   845     2.9288     7.1466    10.6245 ***** 1    ****  0.000
846   846     2.8022     7.1778    10.8702 ***** 1    ****  0.000
847   847     2.6377     7.2949    11.0614 ***** 1    ****  0.000
848   848     2.5096     7.4793    11.2334 ***** 1    ****  0.000
849   849     2.3419     7.7048    11.2505 ***** 1    ****  0.000
850   850     2.2089     7.9396    11.1704 ***** 1    ****  0.000
851   851     2.1283     8.1521    11.0042 ***** 1    ****  0.000
852   852     2.1112     8.3134    10.7741 ***** 1    ****  0.000
853   853     2.1599     8.4018    10.5113 ***** 1    ****  0.000
854   854     2.2677     8.4055    10.2513 ***** 1    ****  0.000
855   855     2.4202     8.3238    10.0291 ***** 1    ****  0.000
856   856     2.5967     8.1679     9.8749 ***** 1    ****  0.000
857   857     2.7733     7.9587     9.8094 ***** 1    ****  0.000
858   858     2.9263     7.7246     9.8414 ***** 1    ****  0.000
859   859     3.0350     7.4971     9.9667 ***** 1    ****  0.000
860   860     3.0846     7.3070    10.1683 ***** 1    ****  0.000
861   861     3.0686     7.1799    10.4190 ***** 1    ****  0.000
862   862     2.9890     7.1331    10.6850 ***** 1    ****  0.000
863   863     2.8566     7.1728    10.9302 ***** 1    ****  0.000
864   864     2.6893     7.2936    11.1217 ***** 1    ****  0.000
865   865     2.5648     8.9608    10.5869 ***** 1    ****  0.000
866   866     2.5134     8.9169    10.5455 ***** 1    ****  0.000
867   867     2.6196     8.9996    10.6293 ***** 1    ****  0.000
868   868     2.5899     8.9331    10.4329 ***** 1    ****  0.000
869   869     2.4471     8.8852    10.6614 ***** 1    ****  0.000
870   870     2.6773     9.0328    10.6723 ***** 1    ****  0.000
871   871     2.7455     9.0146    10.4426 ***** 1    ****  0.000
872   872     2.5243     8.8620    10.3749 ***** 1    ****  0.000
873   873     2.3796     8.8135    10.6062 ***** 1    ****  0.000
874   874     2.5115     8.9361    10.8170 ***** 1    ****  0.000
875   875     2.7376     9.0604    10.7158 ***** 1    ****  0.000
876   876     2.8488     9.0634    10.4937 ***** 1    ****  0.000
877   877     2.7034     8.9362    10.3040 ***** 1    ****  0.000
878   878     2.4735     8.7961    10.3331 ***** 1    ****  0.000
879   879     2.3322     8.7487    10.5592 ***** 1    ****  0.000
880   880     2.3859     8.8297    10.8120 ***** 1    ****  0.000
881   881     2.5942     8.9780    10.9011 ***** 1    ****  0.000
882   882     2.8002     9.0820    10.7595 ***** 1    ****  0.000
883   883     2.9314     9.0864    10.5152 ***** 1    ****  0.000
884   884     2.8075     8.9637    10.2764 ***** 1    ****  0.000
885   885     2.5654     8.8013    10.2266 ***** 1    ****  0.000
886   886     2.3470     8.6944    10.3949 ***** 1    ****  0.000
887   887     2.2803     8.7056    10.6827 ***** 1    ****  0.000
888   888     2.4042     8.8284    10.9215 ***** 1    ****  0.000
889   889     2.6462     8.9908    10.9713 ***** 1    ****  0.000
890   890     2.8646     9.0977    10.8030 ***** 1    ****  0.000
891   891     3.0124     9.1087    10.5751 ***** 1    ****  0.000
892   892     2.9458     9.0182    10.3151 ***** 1    ****  0.000
893   893     2.7561     8.8704    10.1655 ***** 1    ****  0.000
894   894     2.5158     8.7217    10.1835 ***** 1    ****  0.000
895   895     2.3166     8.6289    10.3621 ***** 1    ****  0.000
896   896     2.2347     8.6274    10.6332 ***** 1    ****  0.000
897   897     2.3012     8.7178    10.8932 ***** 1    ****  0.000
898   898     2.4909     8.8656    11.0428 ***** 1    ****  0.000
899   899     2.7313     9.0144    11.0248 ***** 1    ****  0.000
900   900     2.9305     9.1072    10.8462 ***** 1    ****  0.000
901   901     3.0876     9.1198    10.6313 ***** 1    ****  0.000
902   902     3.0591     9.0529    10.3683 ***** 1    ****  0.000
903   903     2.9193     8.9277    10.1701 ***** 1    ****  0.000
904   904     2.7059     8.7778    10.0898 ***** 1    ****  0.000
905   905     2.4759     8.6433    10.1490 ***** 1    ****  0.000
906   906     2.2910     8.5602    10.3317 ***** 1    ****  0.000
907   907     2.2008     8.5509    10.5891 ***** 1    ****  0.000
908   908     2.2293     8.6179    10.8522 ***** 1    ****  0.000
909   909     2.3690     8.7431    11.0504 ***** 1    ****  0.000
910   910     2.5825     8.8930    11.1306 ***** 1    ****  0.000
911   911     2.8124     9.0275    11.0715 ***** 1    ****  0.000
912   912     2.9973     9.1105    10.8887 ***** 1    ****  0.000
913   913     3.1631     9.1205    10.6644 ***** 1    ****  0.000
914   914     3.1479     9.0595    10.3876 ***** 1    ****  0.000
915   915     3.0227     8.9386    10.1635 ***** 1    ****  0.000
916   916     2.8162     8.7856    10.0432 ***** 1    ****  0.000
917   917     2.5756     8.6355    10.0545 ***** 1    ****  0.000
918   918     2.3561     8.5227    10.1946 ***** 1    ****  0.000
919   919     2.2080     8.4730    10.4315 ***** 1    ****  0.000
920   920     2.1652     8.4978    10.7109 ***** 1    ****  0.000
921   921     2.2375     8.5915    10.9689 ***** 1    ****  0.000
922   922     2.4084     8.7325    11.1462 ***** 1    ****  0.000
923   923     2.6386     8.8886    11.2024 ***** 1    ****  0.000
924   924     2.8755     9.0240    11.1244 ***** 1    ****  0.000
925   925     3.0648     9.1077    10.9303 ***** 1    ****  0.000
926   926     3.2373     9.1146    10.6992 ***** 1    ****  0.000
927   927     3.2345     9.0597    10.4130 ***** 1    ****  0.000
928   928     3.1246     8.9448    10.1688 ***** 1    ****  0.000
929   929     2.9294     8.7927    10.0148 ***** 1    ****  0.000
930   930     2.6875     8.6335     9.9817 ***** 1    ****  0.000
931   931     2.4469     8.4988    10.0760 ***** 1    ****  0.000
932   932     2.2552     8.4152    10.2789 ***** 1    ****  0.000
933   933     2.1503     8.3993    10.5504 ***** 1    ****  0.000
934   934     2.1531     8.4542    10.8366 ***** 1    ****  0.000
935   935     2.2630     8.5691    11.0808 ***** 1    ****  0.000
936   936     2.4582     8.7212    11.2348 ***** 1    ****  0.000
937   937     2.7001     8.8804    11.2679 ***** 1    ****  0.000
938   938     2.9407     9.0151    11.1736 ***** 1    ****  0.000
939   939     3.1325     9.0987    10.9707 ***** 1    ****  0.000
940   940     3.3059     9.1030    10.7533 ***** 1    ****  0.000
941   941     3.3231     9.0629    10.4787 ***** 1    ****  0.000
942   942     3.2488     8.9693    10.2276 ***** 1    ****  0.000
943   943     3.0944     8.8364    10.0382 ***** 1    ****  0.000
944   944     2.8834     8.6846     9.9395 ***** 1    ****  0.000
945   945     2.6479     8.5369     9.9463 ***** 1    ****  0.000
946   946     2.4238     8.4157    10.0577 ***** 1    ****  0.000
947   947     2.2451     8.3397    10.2568 ***** 1    ****  0.000
948   948     2.1391     8.3202    10.5131 ***** 1    ****  0.000
949   949     2.1219     8.3604    10.7878 ***** 1    ****  0.000
950   950     2.1962     8.4540    11.0389 ***** 1    ****  0.000
951   951     2.3505     8.5868    11.2282 ***** 1    ****  0.000
952   952     2.5615     8.7387    11.3270 ***** 1    ****  0.000
953   953     2.7970     8.8864    11.3201 ***** 1    ****  0.000
954   954     3.0212     9.0075    11.2087 ***** 1    ****  0.000
955   955     3.1999     9.0836    11.0096 ***** 1    ****  0.000
956   956     3.3764     9.0839    10.7886 ***** 1    ****  0.000
957   957     3.4020     9.0484    10.5105 ***** 1    ****  0.000
958   958     3.3401     8.9609    10.2502 ***** 1    ****  0.000
959   959     3.1989     8.8331    10.0428 ***** 1    ****  0.000
960   960     2.9976     8.6822     9.9165 ***** 1    ****  0.000
961   961     2.7633     8.5287     9.8881 ***** 1    ****  0.000
962   962     2.5277     8.3933     9.9616 ***** 1    ****  0.000
963   963     2.3226     8.2943    10.1271 ***** 1    ****  0.000
964   964     2.1757     8.2450    10.3621 ***** 1    ****  0.000
965   965     2.1068     8.2521    10.6350 ***** 1    ****  0.000
966   966     2.1252     8.3147    10.9088 ***** 1    ****  0.000
967   967     2.2285     8.4242    11.1467 ***** 1    ****  0.000
968   968     2.4027     8.5660    11.3164 ***** 1    ****  0.000
969   969     2.6243     8.7208    11.3951 ***** 1    ****  0.000
970   970     2.8633     8.8677    11.3722 ***** 1    ****  0.000
971   971     3.0875     8.9870    11.2506 ***** 1    ****  0.000
972   972     3.2666     9.0624    11.0469 ***** 1    ****  0.000
973   973    -0.7366    12.8701    11.3141 ***** 1    ****  0.000
974   974    -0.7473    12.8603    11.2361 ***** 1    ****  0.000
975   975    -0.7197    12.8790    11.3911 ***** 1    ****  0.000
976   976    -0.7219    12.9935    11.2157 ***** 1    ****  0.000
977   977    -0.7543    12.7245    11.2541 ***** 1    ****  0.000
978   978    -0.6968    12.8870    11.4666 ***** 1    ****  0.000
979   979    -0.6698    13.0952    11.3495 ***** 1    ****  0.000
980   980    -0.7258    12.9798    11.1038 ***** 1    ****  0.000
981   981    -0.7586    12.7073    11.1426 ***** 1    ****  0.000
982   982    -0.7229    12.6543    11.4123 ***** 1    ****  0.000
983   983    -0.6680    12.8940    11.5401 ***** 1    ****  0.000
984   984    -0.6251    13.1259    11.4623 ***** 1    ****  0.000
985   985    -0.6639    13.1539    11.1958 ***** 1    ****  0.000
986   986    -0.7207    12.9629    11.0125 ***** 1    ****  0.000
987   987    -0.7527    12.6967    11.0504 ***** 1    ****  0.000
988   988    -0.7359    12.5558    11.2810 ***** 1    ****  0.000
989   989    -0.6828    12.6463    11.5306 ***** 1    ****  0.000
990   990    -0.6335    12.9000    11.6113 ***** 1    ****  0.000
991   991    -0.5808    13.1601    11.5307 ***** 1    ****  0.000
992   992    -0.6150    13.2390    11.2478 ***** 1    ****  0.000
993   993    -0.6759    13.0954    10.9966 ***** 1    ****  0.000
994   994    -0.7279    12.8135    10.9242 ***** 1    ****  0.000
995   995    -0.7406    12.5583    11.0731 ***** 1    ****  0.000
996   996    -0.7064    12.4794    11.3560 ***** 1    ****  0.000
997   997    -0.6455    12.6230    11.6072 ***** 1    ****  0.000
998   998    -0.5934    12.9049    11.6796 ***** 1    ****  0.000
999   999    -0.5315    13.1632    11.6213 ***** 1    ****  0.000
1000  1000    -0.5517    13.2997    11.3740 ***** 1    ****  0.000
1001  1001    -0.6010    13.2662    11.0972 ***** 1    ****  0.000
1002  1002    -0.6606    13.0754    10.8965 ***** 1    ****  0.000
1003  1003    -0.7077    12.8003    10.8487 ***** 1    ****  0.000
1004  1004    -0.7243    12.5459    10.9720 ***** 1    ****  0.000
1005  1005    -0.7041    12.4093    11.2193 ***** 1    ****  0.000
1006  1006    -0.6549    12.4429    11.4961 ***** 1    ****  0.000
1007  1007    -0.5953    12.6336    11.6968 ***** 1    ****  0.000
1008  1008    -0.5482    12.9087    11.7446 ***** 1    ****  0.000
1009  1009    -0.4790    13.1622    11.6999 ***** 1    ****  0.000
1010  1010    -0.4898    13.3291    11.4842 ***** 1    ****  0.000
1011  1011    -0.5273    13.3673    11.2166 ***** 1    ****  0.000
1012  1012    -0.5815    13.2667    10.9688 ***** 1    ****  0.000
1013  1013    -0.6380    13.0541    10.8072 ***** 1    ****  0.000
1014  1014    -0.6815    12.7866    10.7751 ***** 1    ****  0.000
1015  1015    -0.7004    12.5359    10.8811 ***** 1    ****  0.000
1016  1016    -0.6896    12.3690    11.0967 ***** 1    ****  0.000
1017  1017    -0.6521    12.3308    11.3643 ***** 1    ****  0.000
1018  1018    -0.5978    12.4314    11.6122 ***** 1    ****  0.000
1019  1019    -0.5414    12.6439    11.7738 ***** 1    ****  0.000
1020  1020    -0.4979    12.9114    11.8059 ***** 1    ****  0.000
1021  1021    -0.4222    13.1758    11.7581 ***** 1    ****  0.000
1022  1022    -0.4299    13.3623    11.5444 ***** 1    ****  0.000
1023  1023    -0.4641    13.4299    11.2709 ***** 1    ****  0.000
1024  1024    -0.5172    13.3629    11.0003 ***** 1    ****  0.000
1025  1025    -0.5769    13.1768    10.7946 ***** 1    ****  0.000
1026  1026    -0.6296    12.9142    10.7008 ***** 1    ****  0.000
1027  1027    -0.6632    12.6352    10.7406 ***** 1    ****  0.000
1028  1028    -0.6700    12.4038    10.9047 ***** 1    ****  0.000
1029  1029    -0.6484    12.2729    11.1556 ***** 1    ****  0.000
1030  1030    -0.6035    12.2727    11.4358 ***** 1    ****  0.000
1031  1031    -0.5454    12.4030    11.6811 ***** 1    ****  0.000
1032  1032    -0.4875    12.6341    11.8353 ***** 1    ****  0.000
1033  1033    -0.4430    12.9130    11.8631 ***** 1    ****  0.000
1034  1034    -0.3615    13.1850    11.8127 ***** 1    ****  0.000
1035  1035    -0.3662    13.3875    11.6032 ***** 1    ****  0.000
1036  1036    -0.3969    13.4807    11.3287 ***** 1    ****  0.000
1037  1037    -0.4476    13.4462    11.0438 ***** 1    ****  0.000
1038  1038    -0.5083    13.2909    10.8049 ***** 1    ****  0.000
1039  1039    -0.5669    13.0454    10.6591 ***** 1    ****  0.000
1040  1040    -0.6118    12.7584    10.6355 ***** 1    ****  0.000
1041  1041    -0.6341    12.4867    10.7387 ***** 1    ****  0.000
1042  1042    -0.6295    12.2842    10.9483 ***** 1    ****  0.000
1043  1043    -0.5987    12.1910    11.2227 ***** 1    ****  0.000
1044  1044    -0.5480    12.2255    11.5076 ***** 1    ****  0.000
1045  1045    -0.4873    12.3809    11.7466 ***** 1    ****  0.000
1046  1046    -0.4288    12.6264    11.8923 ***** 1    ****  0.000
1047  1047    -0.3838    12.9134    11.9159 ***** 1    ****  0.000
1048  1048    -0.2979    13.1743    11.8727 ***** 1    ****  0.000
1049  1049    -0.2974    13.3833    11.6893 ***** 1    ****  0.000
1050  1050    -0.3194    13.5078    11.4416 ***** 1    ****  0.000
1051  1051    -0.3604    13.5289    11.1674 ***** 1    ****  0.000
1052  1052    -0.4143    13.4433    10.9083 ***** 1    ****  0.000
1053  1053    -0.4728    13.2640    10.7039 ***** 1    ****  0.000
1054  1054    -0.5271    13.0184    10.5853 ***** 1    ****  0.000
1055  1055    -0.5688    12.7439    10.5705 ***** 1    ****  0.000
1056  1056    -0.5916    12.4822    10.6617 ***** 1    ****  0.000
1057  1057    -0.5921    12.2732    10.8451 ***** 1    ****  0.000
1058  1058    -0.5702    12.1487    11.0928 ***** 1    ****  0.000
1059  1059    -0.5291    12.1277    11.3670 ***** 1    ****  0.000
1060  1060    -0.4752    12.2133    11.6261 ***** 1    ****  0.000
1061  1061    -0.4167    12.3925    11.8305 ***** 1    ****  0.000
1062  1062    -0.3624    12.6381    11.9491 ***** 1    ****  0.000
1063  1063    -0.3207    12.9126    11.9639 ***** 1    ****  0.000
1064  1064    -0.2303    13.1766    11.9175 ***** 1    ****  0.000
1065  1065    -0.2278    13.3944    11.7391 ***** 1    ****  0.000
1066  1066    -0.2468    13.5346    11.4957 ***** 1    ****  0.000
1067  1067    -0.2848    13.5783    11.2202 ***** 1    ****  0.000
1068  1068    -0.3367    13.5195    10.9498 ***** 1    ****  0.000
1069  1069    -0.3954    13.3664    10.7210 ***** 1    ****  0.000
1070  1070    -0.4530    13.1394    10.5648 ***** 1    ****  0.000
1071  1071    -0.5018    12.8693    10.5021 ***** 1    ****  0.000
1072  1072    -0.5351    12.5926    10.5416 ***** 1    ****  0.000
1073  1073    -0.5485    12.3465    10.6778 ***** 1    ****  0.000
1074  1074    -0.5401    12.1645    10.8923 ***** 1    ****  0.000
1075  1075    -0.5111    12.0709    11.1563 ***** 1    ****  0.000
1076  1076    -0.4654    12.0786    11.4339 ***** 1    ****  0.000
1077  1077    -0.4091    12.1864    11.6878 ***** 1    ****  0.000
1078  1078    -0.3499    12.3797    11.8837 ***** 1    ****  0.000
1079  1079    -0.2958    12.6326    11.9951 ***** 1    ****  0.000
1080  1080    -0.2541    12.9107    12.0069 ***** 1    ****  0.000
1081  1081     1.3891    16.3216     9.3273 ***** 1    ****  0.000
1082  1082     1.3438    16.2919     9.2693 ***** 1    ****  0.000
1083  1083     1.4389    16.3473     9.3834 ***** 1    ****  0.000
1084  1084     1.3986    16.3811     9.1807 ***** 1    ****  0.000
1085  1085     1.3029    16.1910     9.3527 ***** 1    ****  0.000
1086  1086     1.4929    16.3689     9.4373 ***** 1    ****  0.000
1087  1087     1.5315    16.4851     9.2305 ***** 1    ****  0.000
1088  1088     1.3435    16.3335     9.0946 ***** 1    ****  0.000
1089  1089     1.2466    16.1409     9.2688 ***** 1    ****  0.000
1090  1090     1.3747    16.1736     9.5124 ***** 1    ****  0.000
1091  1091     1.5507    16.3863     9.4887 ***** 1    ****  0.000
1092  1092     1.6270    16.5277     9.2993 ***** 1    ****  0.000
1093  1093     1.4898    16.4773     9.0714 ***** 1    ****  0.000
1094  1094     1.3038    16.2860     9.0251 ***** 1    ****  0.000
1095  1095     1.2091    16.0979     9.1953 ***** 1    ****  0.000
1096  1096     1.2770    16.0546     9.4538 ***** 1    ****  0.000
1097  1097     1.4564    16.1887     9.6060 ***** 1    ****  0.000
1098  1098     1.6121    16.3993     9.5372 ***** 1    ****  0.000
1099  1099     1.7043    16.5581     9.3294 ***** 1    ****  0.000
1100  1100     1.5801    16.5412     9.0616 ***** 1    ****  0.000
1101  1101     1.3767    16.3671     8.9361 ***** 1    ****  0.000
1102  1102     1.2133    16.1377     9.0263 ***** 1    ****  0.000
1103  1103     1.1857    15.9875     9.2795 ***** 1    ****  0.000
1104  1104     1.3099    16.0044     9.5473 ***** 1    ****  0.000
1105  1105     1.5133    16.1785     9.6728 ***** 1    ****  0.000
1106  1106     1.6766    16.4079     9.5826 ***** 1    ****  0.000
1107  1107     1.7856    16.5684     9.3922 ***** 1    ****  0.000
1108  1108     1.7064    16.6040     9.1226 ***** 1    ****  0.000
1109  1109     1.5366    16.5050     8.9187 ***** 1    ****  0.000
1110  1110     1.3410    16.3092     8.8584 ***** 1    ****  0.000
1111  1111     1.1944    16.0915     8.9647 ***** 1    ****  0.000
1112  1112     1.1527    15.9350     9.1970 ***** 1    ****  0.000
1113  1113     1.2319    15.8995     9.4666 ***** 1    ****  0.000
1114  1114     1.4017    15.9985     9.6705 ***** 1    ****  0.000
1115  1115     1.5972    16.1942     9.7308 ***** 1    ****  0.000
1116  1116     1.7439    16.4119     9.6245 ***** 1    ****  0.000
1117  1117     1.8632    16.5699     9.4461 ***** 1    ****  0.000
1118  1118     1.8150    16.6365     9.1858 ***** 1    ****  0.000
1119  1119     1.6816    16.5934     8.9517 ***** 1    ****  0.000
1120  1120     1.4989    16.4522     8.8063 ***** 1    ****  0.000
1121  1121     1.3157    16.2506     8.7887 ***** 1    ****  0.000
1122  1122     1.1812    16.0428     8.9035 ***** 1    ****  0.000
1123  1123     1.1314    15.8844     9.1201 ***** 1    ****  0.000
1124  1124     1.1796    15.8178     9.3803 ***** 1    ****  0.000
1125  1125     1.3129    15.8609     9.6145 ***** 1    ****  0.000
1126  1126     1.4957    16.0021     9.7599 ***** 1    ****  0.000
1127  1127     1.6789    16.2036     9.7775 ***** 1    ****  0.000
1128  1128     1.8134    16.4115     9.6626 ***** 1    ****  0.000
1129  1129     1.9404    16.5742     9.4747 ***** 1    ****  0.000
1130  1130     1.9018    16.6559     9.2057 ***** 1    ****  0.000
1131  1131     1.7779    16.6331     8.9515 ***** 1    ****  0.000
1132  1132     1.5971    16.5108     8.7702 ***** 1    ****  0.000
1133  1133     1.4007    16.3172     8.7034 ***** 1    ****  0.000
1134  1134     1.2337    16.0965     8.7664 ***** 1    ****  0.000
1135  1135     1.1345    15.8993     8.9448 ***** 1    ****  0.000
1136  1136     1.1257    15.7709     9.1976 ***** 1    ****  0.000
1137  1137     1.2094    15.7405     9.4671 ***** 1    ****  0.000
1138  1138     1.3663    15.8153     9.6914 ***** 1    ****  0.000
1139  1139     1.5606    15.9780     9.8192 ***** 1    ****  0.000
1140  1140     1.7477    16.1913     9.8211 ***** 1    ****  0.000
1141  1141     1.8848    16.4065     9.6968 ***** 1    ****  0.000
1142  1142     2.0180    16.5717     9.5016 ***** 1    ****  0.000
1143  1143     1.9888    16.6665     9.2275 ***** 1    ****  0.000
1144  1144     1.8755    16.6625     8.9590 ***** 1    ****  0.000
1145  1145     1.7008    16.5606     8.7492 ***** 1    ****  0.000
1146  1146     1.4991    16.3810     8.6396 ***** 1    ****  0.000
1147  1147     1.3105    16.1592     8.6521 ***** 1    ****  0.000
1148  1148     1.1723    15.9391     8.7840 ***** 1    ****  0.000
1149  1149     1.1118    15.7644     9.0093 ***** 1    ****  0.000
1150  1150     1.1411    15.6696     9.2833 ***** 1    ****  0.000
1151  1151     1.2543    15.6736     9.5518 ***** 1    ****  0.000
1152  1152     1.4291    15.7755     9.7616 ***** 1    ****  0.000
1153  1153     1.6307    15.9551     9.8712 ***** 1    ****  0.000
1154  1154     1.8194    16.1770     9.8588 ***** 1    ****  0.000
1155  1155     1.9576    16.3970     9.7269 ***** 1    ****  0.000
1156  1156     2.0942    16.5536     9.5420 ***** 1    ****  0.000
1157  1157     2.0824    16.6602     9.2855 ***** 1    ****  0.000
1158  1158     1.9977    16.6867     9.0219 ***** 1    ****  0.000
1159  1159     1.8532    16.6291     8.7914 ***** 1    ****  0.000
1160  1160     1.6707    16.4960     8.6292 ***** 1    ****  0.000
1161  1161     1.4780    16.3078     8.5599 ***** 1    ****  0.000
1162  1162     1.3046    16.0932     8.5940 ***** 1    ****  0.000
1163  1163     1.1767    15.8848     8.7264 ***** 1    ****  0.000
1164  1164     1.1139    15.7143     8.9369 ***** 1    ****  0.000
1165  1165     1.1257    15.6076     9.1934 ***** 1    ****  0.000
1166  1166     1.2103    15.5812     9.4570 ***** 1    ****  0.000
1167  1167     1.3548    15.6388     9.6874 ***** 1    ****  0.000
1168  1168     1.5373    15.7719     9.8497 ***** 1    ****  0.000
1169  1169     1.7300    15.9600     9.9190 ***** 1    ****  0.000
1170  1170     1.9034    16.1747     9.8849 ***** 1    ****  0.000
1171  1171     2.0313    16.3831     9.7525 ***** 1    ****  0.000
1172  1172     2.1713    16.5390     9.5625 ***** 1    ****  0.000
1173  1173     2.1661    16.6535     9.3053 ***** 1    ****  0.000
1174  1174     2.0907    16.6928     9.0369 ***** 1    ****  0.000
1175  1175     1.9553    16.6517     8.7936 ***** 1    ****  0.000
1176  1176     1.7782    16.5356     8.6081 ***** 1    ****  0.000
1177  1177     1.5832    16.3603     8.5056 ***** 1    ****  0.000
1178  1178     1.3967    16.1495     8.4998 ***** 1    ****  0.000
1179  1179     1.2440    15.9316     8.5916 ***** 1    ****  0.000
1180  1180     1.1456    15.7360     8.7686 ***** 1    ****  0.000
1181  1181     1.1147    15.5892     9.0068 ***** 1    ****  0.000
1182  1182     1.1557    15.5110     9.2741 ***** 1    ****  0.000
1183  1183     1.2630    15.5119     9.5344 ***** 1    ****  0.000
1184  1184     1.4219    15.5919     9.7525 ***** 1    ****  0.000
1185  1185     1.6112    15.7400     9.8990 ***** 1    ****  0.000
1186  1186     1.8053    15.9365     9.9541 ***** 1    ****  0.000
1187  1187     1.9778    16.1546     9.9104 ***** 1    ****  0.000
1188  1188     2.1056    16.3649     9.7736 ***** 1    ****  0.000
1189  1189     2.2125    15.4905     8.0592 ***** 1    ****  0.000
1190  1190     2.1654    15.4277     8.0705 ***** 1    ****  0.000
1191  1191     2.2591    15.5545     8.0541 ***** 1    ****  0.000
1192  1192     2.2740    15.3525     8.1073 ***** 1    ****  0.000
1193  1193     2.0551    15.5071     8.0519 ***** 1    ****  0.000
1194  1194     2.3046    15.6194     8.0551 ***** 1    ****  0.000
1195  1195     2.4320    15.4278     8.1245 ***** 1    ****  0.000
1196  1196     2.2077    15.2653     8.1345 ***** 1    ****  0.000
1197  1197     1.9860    15.4219     8.0783 ***** 1    ****  0.000
1198  1198     2.0733    15.6811     8.0337 ***** 1    ****  0.000
1199  1199     2.3490    15.6848     8.0623 ***** 1    ****  0.000
1200  1200     2.5175    15.5184     8.1371 ***** 1    ****  0.000
1201  1201     2.4097    15.2732     8.1766 ***** 1    ****  0.000
1202  1202     2.1495    15.1992     8.1644 ***** 1    ****  0.000
1203  1203     1.9329    15.3522     8.1095 ***** 1    ****  0.000
1204  1204     1.9230    15.6169     8.0534 ***** 1    ****  0.000
1205  1205     2.1272    15.7940     8.0383 ***** 1    ****  0.000
1206  1206     2.3918    15.7502     8.0755 ***** 1    ****  0.000
1207  1207     2.5845    15.5704     8.1619 ***** 1    ****  0.000
1208  1208     2.5135    15.2879     8.2131 ***** 1    ****  0.000
1209  1209     2.2615    15.1333     8.2184 ***** 1    ****  0.000
1210  1210     1.9761    15.1971     8.1748 ***** 1    ****  0.000
1211  1211     1.8245    15.4420     8.1078 ***** 1    ****  0.000
1212  1212     1.8954    15.7244     8.0566 ***** 1    ****  0.000
1213  1213     2.1474    15.8790     8.0512 ***** 1    ****  0.000
1214  1214     2.4329    15.8152     8.0948 ***** 1    ****  0.000
1215  1215     2.6356    15.6574     8.1836 ***** 1    ****  0.000
1216  1216     2.6333    15.3801     8.2411 ***** 1    ****  0.000
1217  1217     2.4659    15.1535     8.2704 ***** 1    ****  0.000
1218  1218     2.1973    15.0643     8.2604 ***** 1    ****  0.000
1219  1219     1.9302    15.1464     8.2149 ***** 1    ****  0.000
1220  1220     1.7664    15.3686     8.1513 ***** 1    ****  0.000
1221  1221     1.7687    15.6459     8.0939 ***** 1    ****  0.000
1222  1222     1.9361    15.8724     8.0645 ***** 1    ****  0.000
1223  1223     2.2047    15.9617     8.0745 ***** 1    ****  0.000
1224  1224     2.4719    15.8795     8.1200 ***** 1    ****  0.000
1225  1225     2.6777    15.7372     8.2117 ***** 1    ****  0.000
1226  1226     2.7180    15.4739     8.2707 ***** 1    ****  0.000
1227  1227     2.6187    15.2231     8.3123 ***** 1    ****  0.000
1228  1228     2.4064    15.0521     8.3253 ***** 1    ****  0.000
1229  1229     2.1380    15.0067     8.3062 ***** 1    ****  0.000
1230  1230     1.8853    15.0992     8.2601 ***** 1    ****  0.000
1231  1231     1.7162    15.3046     8.1994 ***** 1    ****  0.000
1232  1232     1.6759    15.5679     8.1404 ***** 1    ****  0.000
1233  1233     1.7752    15.8187     8.0988 ***** 1    ****  0.000
1234  1234     1.9876    15.9897     8.0858 ***** 1    ****  0.000
1235  1235     2.2560    16.0350     8.1049 ***** 1    ****  0.000
1236  1236     2.5086    15.9426     8.1510 ***** 1    ****  0.000
1237  1237     2.7231    15.7942     8.2503 ***** 1    ****  0.000
1238  1238     2.7818    15.5237     8.3128 ***** 1    ****  0.000
1239  1239     2.7054    15.2546     8.3606 ***** 1    ****  0.000
1240  1240     2.5116    15.0486     8.3829 ***** 1    ****  0.000
1241  1241     2.2446    14.9528     8.3744 ***** 1    ****  0.000
1242  1242     1.9656    14.9892     8.3372 ***** 1    ****  0.000
1243  1243     1.7386    15.1496     8.2797 ***** 1    ****  0.000
1244  1244     1.6155    15.3970     8.2152 ***** 1    ****  0.000
1245  1245     1.6246    15.6749     8.1583 ***** 1    ****  0.000
1246  1246     1.7638    15.9196     8.1222 ***** 1    ****  0.000
1247  1247     2.0011    16.0750     8.1151 ***** 1    ****  0.000
1248  1248     2.2823    16.1055     8.1387 ***** 1    ****  0.000
1249  1249     2.5428    16.0042     8.1875 ***** 1    ****  0.000
1250  1250     2.7633    15.8514     8.2935 ***** 1    ****  0.000
1251  1251     2.8381    15.5773     8.3585 ***** 1    ****  0.000
1252  1252     2.7841    15.2959     8.4113 ***** 1    ****  0.000
1253  1253     2.6118    15.0627     8.4415 ***** 1    ****  0.000
1254  1254     2.3555    14.9241     8.4430 ***** 1    ****  0.000
1255  1255     2.0658    14.9075     8.4157 ***** 1    ****  0.000
1256  1256     1.8002    15.0161     8.3649 ***** 1    ****  0.000
1257  1257     1.6112    15.2285     8.3006 ***** 1    ****  0.000
1258  1258     1.5363    15.5025     8.2356 ***** 1    ****  0.000
1259  1259     1.5904    15.7840     8.1828 ***** 1    ****  0.000
1260  1260     1.7627    16.0171     8.1527 ***** 1    ****  0.000
1261  1261     2.0190    16.1558     8.1511 ***** 1    ****  0.000
1262  1262     2.3087    16.1724     8.1784 ***** 1    ****  0.000
1263  1263     2.5743    16.0638     8.2293 ***** 1    ****  0.000
1264  1264     2.7890    15.9236     8.3370 ***** 1    ****  0.000
1265  1265     2.8826    15.6694     8.3998 ***** 1    ****  0.000
1266  1266     2.8695    15.3972     8.4550 ***** 1    ****  0.000
1267  1267     2.7517    15.1483     8.4943 ***** 1    ****  0.000
1268  1268     2.5471    14.9608     8.5115 ***** 1    ****  0.000
1269  1269     2.2869    14.8631     8.5042 ***** 1    ****  0.000
1270  1270     2.0106    14.8702     8.4733 ***** 1    ****  0.000
1271  1271     1.7604    14.9808     8.4237 ***** 1    ****  0.000
1272  1272     1.5743    15.1783     8.3628 ***** 1    ****  0.000
1273  1273     1.4806    15.4325     8.3000 ***** 1    ****  0.000
1274  1274     1.4937    15.7047     8.2448 ***** 1    ****  0.000
1275  1275     1.6115    15.9535     8.2056 ***** 1    ****  0.000
1276  1276     1.8161    16.1410     8.1883 ***** 1    ****  0.000
1277  1277     2.0764    16.2387     8.1957 ***** 1    ****  0.000
1278  1278     2.3527    16.2317     8.2265 ***** 1    ****  0.000
1279  1279     2.6029    16.1210     8.2761 ***** 1    ****  0.000
1280  1280     2.8191    15.9779     8.3892 ***** 1    ****  0.000
1281  1281     2.9230    15.7241     8.4530 ***** 1    ****  0.000
1282  1282     2.9259    15.4486     8.5106 ***** 1    ****  0.000
1283  1283     2.8275    15.1885     8.5542 ***** 1    ****  0.000
1284  1284     2.6410    14.9789     8.5780 ***** 1    ****  0.000
1285  1285     2.3917    14.8482     8.5787 ***** 1    ****  0.000
1286  1286     2.1132    14.8140     8.5562 ***** 1    ****  0.000
1287  1287     1.8431    14.8810     8.5135 ***** 1    ****  0.000
1288  1288     1.6179    15.0400     8.4565 ***** 1    ****  0.000
1289  1289     1.4680    15.2696     8.3928 ***** 1    ****  0.000
1290  1290     1.4137    15.5389     8.3310 ***** 1    ****  0.000
1291  1291     1.4622    15.8113     8.2795 ***** 1    ****  0.000
1292  1292     1.6072    16.0502     8.2453 ***** 1    ****  0.000
1293  1293     1.8288    16.2233     8.2328 ***** 1    ****  0.000
1294  1294     2.0973    16.3072     8.2439 ***** 1    ****  0.000
1295  1295     2.3764    16.2905     8.2771 ***** 1    ****  0.000
1296  1296     2.6284    16.1756     8.3278 ***** 1    ****  0.000
1297  1297     2.8618    15.4856     9.6577 ***** 1    ****  0.000
1298  1298     2.8078    15.4786     9.7154 ***** 1    ****  0.000
1299  1299     2.9110    15.4939     9.5961 ***** 1    ****  0.000
1300  1300     2.8140    15.6138     9.7377 ***** 1    ****  0.000
1301  1301     2.7877    15.3474     9.6810 ***** 1    ****  0.000
1302  1302     2.9552    15.5034     9.5310 ***** 1    ****  0.000
1303  1303     2.9095    15.7167     9.6318 ***** 1    ****  0.000
1304  1304     2.7297    15.6080     9.8125 ***** 1    ****  0.000
1305  1305     2.7030    15.3382     9.7550 ***** 1    ****  0.000
1306  1306     2.8665    15.2802     9.5388 ***** 1    ****  0.000
1307  1307     2.9941    15.5141     9.4627 ***** 1    ****  0.000
1308  1308     2.9743    15.7522     9.5307 ***** 1    ****  0.000
1309  1309     2.8082    15.7854     9.7419 ***** 1    ****  0.000
1310  1310     2.6541    15.6007     9.8663 ***** 1    ****  0.000
1311  1311     2.6281    15.3371     9.8101 ***** 1    ****  0.000
1312  1312     2.7497    15.1931     9.6157 ***** 1    ****  0.000
1313  1313     2.9274    15.2772     9.4295 ***** 1    ****  0.000
1314  1314     3.0274    15.5259     9.3917 ***** 1    ****  0.000
1315  1315     3.0075    15.7939     9.4602 ***** 1    ****  0.000
1316  1316     2.8405    15.8778     9.6894 ***** 1    ****  0.000
1317  1317     2.6517    15.7414     9.8715 ***** 1    ****  0.000
1318  1318     2.5517    15.4646     9.9001 ***** 1    ****  0.000
1319  1319     2.5992    15.2095     9.7582 ***** 1    ****  0.000
1320  1320     2.7662    15.1256     9.5291 ***** 1    ****  0.000
1321  1321     2.9550    15.2620     9.3469 ***** 1    ****  0.000
1322  1322     3.0549    15.5388     9.3184 ***** 1    ****  0.000
1323  1323     3.0454    15.8065     9.3651 ***** 1    ****  0.000
1324  1324     2.9122    15.9465     9.5721 ***** 1    ****  0.000
1325  1325     2.7278    15.9193     9.7853 ***** 1    ****  0.000
1326  1326     2.5626    15.7352     9.9232 ***** 1    ****  0.000
1327  1327     2.4797    15.4646     9.9332 ***** 1    ****  0.000
1328  1328     2.5108    15.2108     9.8115 ***** 1    ****  0.000
1329  1329     2.6440    15.0708     9.6045 ***** 1    ****  0.000
1330  1330     2.8284    15.0980     9.3913 ***** 1    ****  0.000
1331  1331     2.9936    15.2821     9.2534 ***** 1    ****  0.000
1332  1332     3.0765    15.5527     9.2434 ***** 1    ****  0.000
1333  1333     3.0713    15.8173     9.2748 ***** 1    ****  0.000
1334  1334     2.9642    15.9866     9.4601 ***** 1    ****  0.000
1335  1335     2.7993    16.0300     9.6732 ***** 1    ****  0.000
1336  1336     2.6209    15.9359     9.8570 ***** 1    ****  0.000
1337  1337     2.4766    15.7295     9.9622 ***** 1    ****  0.000
1338  1338     2.4053    15.4661     9.9607 ***** 1    ****  0.000
1339  1339     2.4260    15.2163     9.8529 ***** 1    ****  0.000
1340  1340     2.5331    15.0469     9.6676 ***** 1    ****  0.000
1341  1341     2.6980    15.0035     9.4545 ***** 1    ****  0.000
1342  1342     2.8765    15.0976     9.2707 ***** 1    ****  0.000
1343  1343     3.0207    15.3040     9.1655 ***** 1    ****  0.000
1344  1344     3.0920    15.5674     9.1670 ***** 1    ****  0.000
1345  1345     3.0836    15.8447     9.1980 ***** 1    ****  0.000
1346  1346     2.9814    16.0334     9.3837 ***** 1    ****  0.000
1347  1347     2.8183    16.1059     9.6044 ***** 1    ****  0.000
1348  1348     2.6315    16.0455     9.8093 ***** 1    ****  0.000
1349  1349     2.4640    15.8661     9.9517 ***** 1    ****  0.000
1350  1350     2.3539    15.6088     9.9989 ***** 1    ****  0.000
1351  1351     2.3267    15.3325     9.9400 ***** 1    ****  0.000
1352  1352     2.3884    15.1006     9.7886 ***** 1    ****  0.000
1353  1353     2.5250    14.9661     9.5794 ***** 1    ****  0.000
1354  1354     2.7052    14.9599     9.3602 ***** 1    ****  0.000
1355  1355     2.8876    15.0833     9.1813 ***** 1    ****  0.000
1356  1356     3.0306    15.3082     9.0837 ***** 1    ****  0.000
1357  1357     3.1013    15.5830     9.0898 ***** 1    ****  0.000
1358  1358     3.0894    15.8696     9.1199 ***** 1    ****  0.000
1359  1359     2.9930    16.0739     9.3040 ***** 1    ****  0.000
1360  1360     2.8342    16.1718     9.5279 ***** 1    ****  0.000
1361  1361     2.6444    16.1438     9.7473 ***** 1    ****  0.000
1362  1362     2.4612    15.9955     9.9187 ***** 1    ****  0.000
1363  1363     2.3210    15.7562    10.0082 ***** 1    ****  0.000
1364  1364     2.2515    15.4733     9.9981 ***** 1    ****  0.000
1365  1365     2.2664    15.2030     9.8904 ***** 1    ****  0.000
1366  1366     2.3628    14.9986     9.7063 ***** 1    ****  0.000
1367  1367     2.5217    14.9007     9.4824 ***** 1    ****  0.000
1368  1368     2.7115    14.9287     9.2630 ***** 1    ****  0.000
1369  1369     2.8946    15.0771     9.0916 ***** 1    ****  0.000
1370  1370     3.0348    15.3163     9.0021 ***** 1    ****  0.000
1371  1371     3.1044    15.5992     9.0122 ***** 1    ****  0.000
1372  1372     3.0921    15.8763     9.0321 ***** 1    ****  0.000
1373  1373     3.0137    16.0866     9.1964 ***** 1    ****  0.000
1374  1374     2.8779    16.2147     9.4025 ***** 1    ****  0.000
1375  1375     2.7055    16.2413     9.6191 ***** 1    ****  0.000
1376  1376     2.5227    16.1623     9.8131 ***** 1    ****  0.000
1377  1377     2.3573    15.9897     9.9551 ***** 1    ****  0.000
1378  1378     2.2345    15.7498    10.0235 ***** 1    ****  0.000
1379  1379     2.1729    15.4790    10.0077 ***** 1    ****  0.000
1380  1380     2.1821    15.2187     9.9103 ***** 1    ****  0.000
1381  1381     2.2604    15.0085     9.7461 ***** 1    ****  0.000
1382  1382     2.3962    14.8803     9.5400 ***** 1    ****  0.000
1383  1383     2.5686    14.8537     9.3234 ***** 1    ****  0.000
1384  1384     2.7514    14.9327     9.1294 ***** 1    ****  0.000
1385  1385     2.9168    15.1053     8.9874 ***** 1    ****  0.000
1386  1386     3.0396    15.3453     8.9190 ***** 1    ****  0.000
1387  1387     3.1012    15.6160     8.9347 ***** 1    ****  0.000
1388  1388     3.0846    15.8977     8.9543 ***** 1    ****  0.000
1389  1389     3.0111    16.1165     9.1155 ***** 1    ****  0.000
1390  1390     2.8811    16.2601     9.3198 ***** 1    ****  0.000
1391  1391     2.7122    16.3091     9.5396 ***** 1    ****  0.000
1392  1392     2.5272    16.2568     9.7452 ***** 1    ****  0.000
1393  1393     2.3510    16.1105     9.9089 ***** 1    ****  0.000
1394  1394     2.2075    15.8897    10.0085 ***** 1    ****  0.000
1395  1395     2.1160    15.6244    10.0306 ***** 1    ****  0.000
1396  1396     2.0890    15.3503     9.9722 ***** 1    ****  0.000
1397  1397     2.1300    15.1045     9.8412 ***** 1    ****  0.000
1398  1398     2.2335    14.9202     9.6553 ***** 1    ****  0.000
1399  1399     2.3856    14.8222     9.4396 ***** 1    ****  0.000
1400  1400     2.5656    14.8239     9.2232 ***** 1    ****  0.000
1401  1401     2.7493    14.9249     9.0353 ***** 1    ****  0.000
1402  1402     2.9120    15.1117     8.9014 ***** 1    ****  0.000
1403  1403     3.0315    15.3589     8.8395 ***** 1    ****  0.000
1404  1404     3.0917    15.6333     8.8579 ***** 1    ****  0.000
1405  1405    -1.3941    16.1337    11.6358 ***** 1    ****  0.000
1406  1406    -1.4474    16.1044    11.5849 ***** 1    ****  0.000
1407  1407    -1.3368    16.1585    11.6848 ***** 1    ****  0.000
1408  1408    -1.3946    16.1820    11.4849 ***** 1    ****  0.000
1409  1409    -1.4880    16.0137    11.6794 ***** 1    ****  0.000
1410  1410    -1.2760    16.1787    11.7315 ***** 1    ****  0.000
1411  1411    -1.2490    16.2765    11.5136 ***** 1    ****  0.000
1412  1412    -1.4621    16.1339    11.4083 ***** 1    ****  0.000
1413  1413    -1.5567    15.9634    11.6053 ***** 1    ****  0.000
1414  1414    -1.4020    16.0006    11.8323 ***** 1    ****  0.000
1415  1415    -1.2119    16.1941    11.7756 ***** 1    ****  0.000
1416  1416    -1.1437    16.3147    11.5694 ***** 1    ****  0.000
1417  1417    -1.3073    16.2617    11.3603 ***** 1    ****  0.000
1418  1418    -1.5126    16.0856    11.3468 ***** 1    ****  0.000
1419  1419    -1.6049    15.9190    11.5393 ***** 1    ****  0.000
1420  1420    -1.5148    15.8874    11.7927 ***** 1    ****  0.000
1421  1421    -1.3101    16.0145    11.9162 ***** 1    ****  0.000
1422  1422    -1.1450    16.2047    11.8168 ***** 1    ****  0.000
1423  1423    -1.0614    16.3398    11.5895 ***** 1    ****  0.000
1424  1424    -1.2134    16.3162    11.3370 ***** 1    ****  0.000
1425  1425    -1.4426    16.1534    11.2452 ***** 1    ****  0.000
1426  1426    -1.6147    15.9467    11.3681 ***** 1    ****  0.000
1427  1427    -1.6289    15.8173    11.6336 ***** 1    ****  0.000
1428  1428    -1.4770    15.8408    11.8861 ***** 1    ****  0.000
1429  1429    -1.2478    16.0036    11.9778 ***** 1    ****  0.000
1430  1430    -1.0757    16.2103    11.8550 ***** 1    ****  0.000
1431  1431    -0.9736    16.3469    11.6432 ***** 1    ****  0.000
1432  1432    -1.0766    16.3711    11.3805 ***** 1    ****  0.000
1433  1433    -1.2742    16.2745    11.2021 ***** 1    ****  0.000
1434  1434    -1.4908    16.0940    11.1760 ***** 1    ****  0.000
1435  1435    -1.6437    15.8984    11.3123 ***** 1    ****  0.000
1436  1436    -1.6745    15.7625    11.5589 ***** 1    ****  0.000
1437  1437    -1.5715    15.7383    11.8216 ***** 1    ****  0.000
1438  1438    -1.3739    15.8349    12.0000 ***** 1    ****  0.000
1439  1439    -1.1573    16.0155    12.0261 ***** 1    ****  0.000
1440  1440    -1.0044    16.2110    11.8898 ***** 1    ****  0.000
1441  1441    -0.8910    16.3448    11.6892 ***** 1    ****  0.000
1442  1442    -0.9598    16.3977    11.4304 ***** 1    ****  0.000
1443  1443    -1.1196    16.3513    11.2141 ***** 1    ****  0.000
1444  1444    -1.3276    16.2179    11.0982 ***** 1    ****  0.000
1445  1445    -1.5280    16.0334    11.1138 ***** 1    ****  0.000
1446  1446    -1.6672    15.8471    11.2566 ***** 1    ****  0.000
1447  1447    -1.7078    15.7090    11.4885 ***** 1    ****  0.000
1448  1448    -1.6390    15.6561    11.7472 ***** 1    ****  0.000
1449  1449    -1.4793    15.7025    11.9635 ***** 1    ****  0.000
1450  1450    -1.2713    15.8359    12.0794 ***** 1    ****  0.000
1451  1451    -1.0708    16.0205    12.0639 ***** 1    ****  0.000
1452  1452    -0.9316    16.2068    11.9210 ***** 1    ****  0.000
1453  1453    -0.8112    16.3439    11.7099 ***** 1    ****  0.000
1454  1454    -0.8700    16.4104    11.4403 ***** 1    ****  0.000
1455  1455    -1.0208    16.3818    11.2016 ***** 1    ****  0.000
1456  1456    -1.2290    16.2647    11.0484 ***** 1    ****  0.000
1457  1457    -1.4469    16.0858    11.0158 ***** 1    ****  0.000
1458  1458    -1.6246    15.8862    11.1113 ***** 1    ****  0.000
1459  1459    -1.7214    15.7116    11.3130 ***** 1    ****  0.000
1460  1460    -1.7151    15.6020    11.5747 ***** 1    ****  0.000
1461  1461    -1.6072    15.5825    11.8364 ***** 1    ****  0.000
1462  1462    -1.4223    15.6576    12.0383 ***** 1    ****  0.000
1463  1463    -1.2029    15.8100    12.1339 ***** 1    ****  0.000
1464  1464    -0.9992    16.0049    12.1015 ***** 1    ****  0.000
1465  1465    -0.8578    16.1976    11.9485 ***** 1    ****  0.000
1466  1466    -0.7317    16.3362    11.7292 ***** 1    ****  0.000
1467  1467    -0.7807    16.4144    11.4528 ***** 1    ****  0.000
1468  1468    -0.9208    16.4026    11.1975 ***** 1    ****  0.000
1469  1469    -1.1241    16.3032    11.0139 ***** 1    ****  0.000
1470  1470    -1.3504    16.1358    10.9383 ***** 1    ****  0.000
1471  1471    -1.5549    15.9337    10.9857 ***** 1    ****  0.000
1472  1472    -1.6970    15.7367    11.1468 ***** 1    ****  0.000
1473  1473    -1.7487    15.5841    11.3896 ***** 1    ****  0.000
1474  1474    -1.6997    15.5058    11.6660 ***** 1    ****  0.000
1475  1475    -1.5596    15.5176    11.9214 ***** 1    ****  0.000
1476  1476    -1.3563    15.6170    12.1050 ***** 1    ****  0.000
1477  1477    -1.1300    15.7844    12.1806 ***** 1    ****  0.000
1478  1478    -0.9255    15.9866    12.1331 ***** 1    ****  0.000
1479  1479    -0.7834    16.1835    11.9720 ***** 1    ****  0.000
1480  1480    -0.6536    16.3140    11.7635 ***** 1    ****  0.000
1481  1481    -0.6825    16.4035    11.5018 ***** 1    ****  0.000
1482  1482    -0.7911    16.4197    11.2463 ***** 1    ****  0.000
1483  1483    -0.9629    16.3600    11.0359 ***** 1    ****  0.000
1484  1484    -1.1717    16.2336    10.9026 ***** 1    ****  0.000
1485  1485    -1.3856    16.0597    10.8667 ***** 1    ****  0.000
1486  1486    -1.5723    15.8647    10.9337 ***** 1    ****  0.000
1487  1487    -1.7032    15.6784    11.0934 ***** 1    ****  0.000
1488  1488    -1.7583    15.5291    11.3214 ***** 1    ****  0.000
1489  1489    -1.7294    15.4396    11.5831 ***** 1    ****  0.000
1490  1490    -1.6209    15.4234    11.8386 ***** 1    ****  0.000
1491  1491    -1.4491    15.4831    12.0490 ***** 1    ****  0.000
1492  1492    -1.2403    15.6095    12.1823 ***** 1    ****  0.000
1493  1493    -1.0264    15.7834    12.2181 ***** 1    ****  0.000
1494  1494    -0.8397    15.9784    12.1512 ***** 1    ****  0.000
1495  1495    -0.7088    16.1647    11.9915 ***** 1    ****  0.000
1496  1496    -0.5763    16.2938    11.7775 ***** 1    ****  0.000
1497  1497    -0.5981    16.3905    11.5140 ***** 1    ****  0.000
1498  1498    -0.6969    16.4182    11.2519 ***** 1    ****  0.000
1499  1499    -0.8595    16.3732    11.0265 ***** 1    ****  0.000
1500  1500    -1.0639    16.2616    10.8683 ***** 1    ****  0.000
1501  1501    -1.2825    16.0985    10.7987 ***** 1    ****  0.000
1502  1502    -1.4858    15.9058    10.8271 ***** 1    ****  0.000
1503  1503    -1.6463    15.7096    10.9496 ***** 1    ****  0.000
1504  1504    -1.7423    15.5364    11.1497 ***** 1    ****  0.000
1505  1505    -1.7609    15.4096    11.4003 ***** 1    ****  0.000
1506  1506    -1.6996    15.3463    11.6677 ***** 1    ****  0.000
1507  1507    -1.5666    15.3550    11.9156 ***** 1    ****  0.000
1508  1508    -1.3799    15.4347    12.1107 ***** 1    ****  0.000
1509  1509    -1.1647    15.5744    12.2266 ***** 1    ****  0.000
1510  1510    -0.9501    15.7554    12.2476 ***** 1    ****  0.000
1511  1511    -0.7651    15.9532    12.1708 ***** 1    ****  0.000
1512  1512    -0.6346    16.1411    12.0068 ***** 1    ****  0.000
1513  1513    -1.4536    15.0961    10.6768 ***** 1    ****  0.000
1514  1514    -1.4242    15.1476    10.6242 ***** 1    ****  0.000
1515  1515    -1.4787    15.0466    10.7335 ***** 1    ****  0.000
1516  1516    -1.5050    15.2460    10.6752 ***** 1    ****  0.000
1517  1517    -1.3306    15.0550    10.5857 ***** 1    ****  0.000
1518  1518    -1.4993    14.9995    10.7939 ***** 1    ****  0.000
1519  1519    -1.6021    15.2153    10.8186 ***** 1    ****  0.000
1520  1520    -1.4568    15.3235    10.6088 ***** 1    ****  0.000
1521  1521    -1.2802    15.1301    10.5182 ***** 1    ****  0.000
1522  1522    -1.3163    14.9024    10.6720 ***** 1    ****  0.000
1523  1523    -1.5153    14.9550    10.8576 ***** 1    ****  0.000
1524  1524    -1.6416    15.1587    10.9230 ***** 1    ****  0.000
1525  1525    -1.5891    15.3689    10.7607 ***** 1    ****  0.000
1526  1526    -1.4087    15.3860    10.5595 ***** 1    ****  0.000
1527  1527    -1.2362    15.1970    10.4709 ***** 1    ****  0.000
1528  1528    -1.2014    14.9443    10.5617 ***** 1    ****  0.000
1529  1529    -1.3306    14.8181    10.7635 ***** 1    ****  0.000
1530  1530    -1.5265    14.9135    10.9243 ***** 1    ****  0.000
1531  1531    -1.6681    15.1380    11.0047 ***** 1    ****  0.000
1532  1532    -1.6462    15.3911    10.8533 ***** 1    ****  0.000
1533  1533    -1.4801    15.4862    10.6279 ***** 1    ****  0.000
1534  1534    -1.2671    15.3676    10.4606 ***** 1    ****  0.000
1535  1535    -1.1320    15.1049    10.4493 ***** 1    ****  0.000
1536  1536    -1.1539    14.8518    10.6007 ***** 1    ****  0.000
1537  1537    -1.3200    14.7567    10.8261 ***** 1    ****  0.000
1538  1538    -1.5330    14.8752    10.9934 ***** 1    ****  0.000
1539  1539    -1.6761    15.0841    11.0923 ***** 1    ****  0.000
1540  1540    -1.7034    15.3463    10.9888 ***** 1    ****  0.000
1541  1541    -1.6059    15.5268    10.7935 ***** 1    ****  0.000
1542  1542    -1.4210    15.5566    10.5811 ***** 1    ****  0.000
1543  1543    -1.2193    15.4244    10.4327 ***** 1    ****  0.000
1544  1544    -1.0778    15.1807    10.4049 ***** 1    ****  0.000
1545  1545    -1.0505    14.9185    10.5085 ***** 1    ****  0.000
1546  1546    -1.1479    14.7380    10.7038 ***** 1    ****  0.000
1547  1547    -1.3329    14.7082    10.9162 ***** 1    ****  0.000
1548  1548    -1.5346    14.8404    11.0646 ***** 1    ****  0.000
1549  1549    -1.6750    15.0382    11.1750 ***** 1    ****  0.000
1550  1550    -1.7316    15.2958    11.1050 ***** 1    ****  0.000
1551  1551    -1.6859    15.5131    10.9463 ***** 1    ****  0.000
1552  1552    -1.5502    15.6318    10.7414 ***** 1    ****  0.000
1553  1553    -1.3609    15.6201    10.5452 ***** 1    ****  0.000
1554  1554    -1.1686    15.4812    10.4103 ***** 1    ****  0.000
1555  1555    -1.0249    15.2522    10.3729 ***** 1    ****  0.000
1556  1556    -0.9683    14.9945    10.4428 ***** 1    ****  0.000
1557  1557    -1.0140    14.7772    10.6015 ***** 1    ****  0.000
1558  1558    -1.1497    14.6586    10.8064 ***** 1    ****  0.000
1559  1559    -1.3391    14.6703    11.0026 ***** 1    ****  0.000
1560  1560    -1.5314    14.8092    11.1375 ***** 1    ****  0.000
1561  1561    -1.6755    15.0175    11.2548 ***** 1    ****  0.000
1562  1562    -1.7461    15.2856    11.1944 ***** 1    ****  0.000
1563  1563    -1.7190    15.5249    11.0444 ***** 1    ****  0.000
1564  1564    -1.6002    15.6806    10.8389 ***** 1    ****  0.000
1565  1565    -1.4172    15.7169    10.6251 ***** 1    ****  0.000
1566  1566    -1.2117    15.6256    10.4520 ***** 1    ****  0.000
1567  1567    -1.0308    15.4275    10.3593 ***** 1    ****  0.000
1568  1568    -0.9161    15.1681    10.3681 ***** 1    ****  0.000
1569  1569    -0.8937    14.9068    10.4764 ***** 1    ****  0.000
1570  1570    -0.9688    14.7034    10.6595 ***** 1    ****  0.000
1571  1571    -1.1243    14.6046    10.8754 ***** 1    ****  0.000
1572  1572    -1.3244    14.6329    11.0746 ***** 1    ****  0.000
1573  1573    -1.5233    14.7819    11.2115 ***** 1    ****  0.000
1574  1574    -1.6692    14.9982    11.3344 ***** 1    ****  0.000
1575  1575    -1.7519    15.2730    11.2836 ***** 1    ****  0.000
1576  1576    -1.7421    15.5286    11.1439 ***** 1    ****  0.000
1577  1577    -1.6419    15.7143    10.9429 ***** 1    ****  0.000
1578  1578    -1.4709    15.7934    10.7205 ***** 1    ****  0.000
1579  1579    -1.2632    15.7502    10.5207 ***** 1    ****  0.000
1580  1580    -1.0599    15.5932    10.3831 ***** 1    ****  0.000
1581  1581    -0.9011    15.3536    10.3349 ***** 1    ****  0.000
1582  1582    -0.8184    15.0788    10.3857 ***** 1    ****  0.000
1583  1583    -0.8282    14.8232    10.5254 ***** 1    ****  0.000
1584  1584    -0.9285    14.6375    10.7264 ***** 1    ****  0.000
1585  1585    -1.0994    14.5584    10.9488 ***** 1    ****  0.000
1586  1586    -1.3071    14.6016    11.1486 ***** 1    ****  0.000
1587  1587    -1.5105    14.7586    11.2862 ***** 1    ****  0.000
1588  1588    -1.6481    14.9644    11.4129 ***** 1    ****  0.000
1589  1589    -1.7423    15.2242    11.3820 ***** 1    ****  0.000
1590  1590    -1.7612    15.4794    11.2731 ***** 1    ****  0.000
1591  1591    -1.7019    15.6910    11.1027 ***** 1    ****  0.000
1592  1592    -1.5735    15.8270    10.8969 ***** 1    ****  0.000
1593  1593    -1.3955    15.8665    10.6870 ***** 1    ****  0.000
1594  1594    -1.1950    15.8036    10.5048 ***** 1    ****  0.000
1595  1595    -1.0025    15.6478    10.3782 ***** 1    ****  0.000
1596  1596    -0.8474    15.4229    10.3265 ***** 1    ****  0.000
1597  1597    -0.7532    15.1631    10.3574 ***** 1    ****  0.000
1598  1598    -0.7343    14.9079    10.4664 ***** 1    ****  0.000
1599  1599    -0.7936    14.6963    10.6367 ***** 1    ****  0.000
1600  1600    -0.9220    14.5603    10.8425 ***** 1    ****  0.000
1601  1601    -1.1000    14.5208    11.0525 ***** 1    ****  0.000
1602  1602    -1.3005    14.5837    11.2346 ***** 1    ****  0.000
1603  1603    -1.4929    14.7395    11.3612 ***** 1    ****  0.000
1604  1604    -1.6294    14.9508    11.4907 ***** 1    ****  0.000
1605  1605    -1.7309    15.2122    11.4668 ***** 1    ****  0.000
1606  1606    -1.7617    15.4738    11.3673 ***** 1    ****  0.000
1607  1607    -1.7177    15.7001    11.2058 ***** 1    ****  0.000
1608  1608    -1.6047    15.8606    11.0040 ***** 1    ****  0.000
1609  1609    -1.4380    15.9336    10.7892 ***** 1    ****  0.000
1610  1610    -1.2402    15.9093    10.5903 ***** 1    ****  0.000
1611  1611    -1.0379    15.7909    10.4344 ***** 1    ****  0.000
1612  1612    -0.8585    15.5945    10.3423 ***** 1    ****  0.000
1613  1613    -0.7262    15.3464    10.3267 ***** 1    ****  0.000
1614  1614    -0.6589    15.0804    10.3894 ***** 1    ****  0.000
1615  1615    -0.6656    14.8322    10.5222 ***** 1    ****  0.000
1616  1616    -0.7455    14.6355    10.7070 ***** 1    ****  0.000
1617  1617    -0.8878    14.5167    10.9189 ***** 1    ****  0.000
1618  1618    -1.0732    14.4919    11.1293 ***** 1    ****  0.000
1619  1619    -1.2767    14.5645    11.3098 ***** 1    ****  0.000
1620  1620    -1.4708    14.7247    11.4359 ***** 1    ****  0.000
